*HEADING
cubit(yerickson/Desktop/test_mesh/BP3_2D_60d_v2_4blocks_var.inp): 05/07/2026: 10
version: 2024.8
**
********************************** P A R T S **********************************
*PART, NAME=Part-Default
**
********************************** N O D E S **********************************
*NODE, NSET=ALLNODES
       1,    0.000000e+00,    0.000000e+00,    0.000000e+00
       2,   -4.000000e+01,    0.000000e+00,    0.000000e+00
       3,   -5.000000e+00,    0.000000e+00,    0.000000e+00
       4,   -1.000000e+01,    0.000000e+00,    0.000000e+00
       5,   -1.500000e+01,    0.000000e+00,    0.000000e+00
       6,   -2.000000e+01,    0.000000e+00,    0.000000e+00
       7,   -2.500000e+01,    0.000000e+00,    0.000000e+00
       8,   -3.000000e+01,    0.000000e+00,    0.000000e+00
       9,   -3.500000e+01,    0.000000e+00,    0.000000e+00
      10,    4.000000e+01,    0.000000e+00,    0.000000e+00
      11,    3.500000e+01,    0.000000e+00,    0.000000e+00
      12,    3.000000e+01,    0.000000e+00,    0.000000e+00
      13,    2.500000e+01,    0.000000e+00,    0.000000e+00
      14,    2.000000e+01,    0.000000e+00,    0.000000e+00
      15,    1.500000e+01,    0.000000e+00,    0.000000e+00
      16,    1.000000e+01,    0.000000e+00,    0.000000e+00
      17,    5.000000e+00,    0.000000e+00,    0.000000e+00
      18,    4.000000e+01,   -6.928203e+01,    0.000000e+00
      19,    2.000000e+01,   -3.464102e+01,    0.000000e+00
      20,    3.750000e+01,   -6.495191e+01,    0.000000e+00
** ... 98 like lines cut
**
********************************** E L E M E N T S ****************************
*ELEMENT, TYPE=S4R, ELSET=EB1
       1,      18,      20,      81,      45
       2,      20,      21,      82,      81
       3,      21,      22,      83,      82
       4,      22,      23,      84,      83
       5,      23,      24,     104,      84
       6,      24,      25,      85,     104
       7,      25,      26,      86,      85
       8,      26,      19,      87,      86
       9,      19,      35,      88,      87
      10,      35,      34,      89,      88
      11,      34,      33,      90,      89
      12,      33,      32,      91,      90
      13,      32,      31,      92,      91
      14,      31,      30,      93,      92
      15,      30,      29,      94,      93
      16,      29,      28,      95,      94
      17,      28,      27,      96,      95
      18,      27,       1,       3,      96
      19,       3,       4,      97,      96
      20,       4,       5,      98,      97
** ... 33 like lines cut
*ELEMENT, TYPE=S4R, ELSET=EB2
      54,       1,      27,      46,      17
      55,      30,      31,      47,      71
      56,      31,      32,      48,      47
      57,      32,      33,      49,      48
      58,      33,      34,      50,      49
      59,      34,      35,      51,      50
      60,      35,      19,      52,      51
      61,      19,      26,      53,      52
      62,      26,      25,      54,      53
      63,      25,      24,      55,      54
      64,      24,      23,      56,      55
      65,      23,      22,      57,      56
      66,      22,      21,      58,      57
      67,      21,      20,      59,      58
      68,      20,      18,      44,      59
      69,      11,      12,      61,      60
      70,      12,      13,      62,      61
      71,      13,      14,      63,      62
      72,      14,      15,      64,      63
      73,      15,      16,      65,      64
** ... 30 like lines cut
**
********************************** S I D E S E T S **********************************
*ELSET, ELSET=SS1_E1
      24,      25,      39,      75,      76,      77
*ELSET, ELSET=SS1_E3
      43,      97
*SURFACE, NAME=SS1
SS1_E1, E1
SS1_E3, E3
*ELSET, ELSET=SS2_E1
      19,      20,      21,      22,      23,      26,      69,      70,      71,      72,
      73,      74
*ELSET, ELSET=SS2_E2
      18,      39,      68,      98
*ELSET, ELSET=SS2_E4
       1,      24,      54,      75
*SURFACE, NAME=SS2
SS2_E1, E1
SS2_E2, E2
SS2_E4, E4
*ELSET, ELSET=SS7_E1
       9,      10,      11,      12,      13,      14,      15,      16,      17,      18,
      54,      55,      56,      57,      58,      59,      60
*ELSET, ELSET=SS7_E2
      99,     101,     102
*SURFACE, NAME=SS7
SS7_E1, E1
SS7_E2, E2
*ELSET, ELSET=SS8_E1
       1,       2,       3,       4,       5,       6,       7,       8,      61,      62,
      63,      64,      65,      66,      67,      68
*SURFACE, NAME=SS8
SS8_E1, E1
**
********************************** P R O P E R T I E S ************************
*SHELL SECTION, ELSET=EB1, SECTION INTEGRATION=SIMPSON, MATERIAL=Default-Steel
1.000000e+00
*SHELL SECTION, ELSET=EB2, SECTION INTEGRATION=SIMPSON, MATERIAL=Default-Steel
1.000000e+00
**
*END PART
**
**
**
********************************** E N D   P A R T S **********************************
**
**
********************************** A S S E M B L Y ************************************
**
*ASSEMBLY, NAME=ASSEMBLY1
**
*INSTANCE, NAME=Part-Default_1, PART=Part-Default
*END INSTANCE
**
*END ASSEMBLY
**
**
**
*MATERIAL, NAME = Default-Steel
*ELASTIC, TYPE=ISOTROPIC
2.068000e+05, 2.900000e-01
*DENSITY
7.000000e-06
*CONDUCTIVITY,TYPE=ISO
4.500000e-02
*SPECIFIC HEAT
5.000000e+02
**
**
************************************** H I S T O R Y *************************************
**
*PREPRINT
**
**************************************** S T E P 1 ***************************************
*STEP,INC=100,NAME=Default Set
**
*STATIC
1, 1, 1e-05, 1
**
**
**
**
*END STEP
