*HEADING
cubit(sers/brittanyerickson/Desktop/test_mesh/BP9_2D_90d_v1.inp): 05/05/2026: 11
version: 2024.8
**
********************************** P A R T S **********************************
*PART, NAME=Part-Default
**
********************************** N O D E S **********************************
*NODE, NSET=ALLNODES
       1,    0.000000e+00,    0.000000e+00,    0.000000e+00
       2,    0.000000e+00,   -4.000000e+01,    0.000000e+00
       3,    0.000000e+00,   -5.000000e+00,    0.000000e+00
       4,    0.000000e+00,   -1.000000e+01,    0.000000e+00
       5,    0.000000e+00,   -1.500000e+01,    0.000000e+00
       6,    0.000000e+00,   -2.000000e+01,    0.000000e+00
       7,    0.000000e+00,   -2.500000e+01,    0.000000e+00
       8,    0.000000e+00,   -3.000000e+01,    0.000000e+00
       9,    0.000000e+00,   -3.500000e+01,    0.000000e+00
      10,   -1.000000e+02,    0.000000e+00,    0.000000e+00
      11,   -5.000000e+00,    0.000000e+00,    0.000000e+00
      12,   -1.044691e+01,    0.000000e+00,    0.000000e+00
      13,   -1.648152e+01,    0.000000e+00,    0.000000e+00
      14,   -2.328195e+01,    0.000000e+00,    0.000000e+00
      15,   -3.107831e+01,    0.000000e+00,    0.000000e+00
      16,   -4.017230e+01,    0.000000e+00,    0.000000e+00
      17,   -5.096471e+01,    0.000000e+00,    0.000000e+00
      18,   -6.399506e+01,    0.000000e+00,    0.000000e+00
      19,   -8.000000e+01,    0.000000e+00,    0.000000e+00
      20,    1.000000e+02,    0.000000e+00,    0.000000e+00
** ... 130 like lines cut
**
********************************** E L E M E N T S ****************************
*ELEMENT, TYPE=S4R, ELSET=EB1
       1,      30,      35,      99,      49
       2,      35,      34,     100,      99
       3,      34,      33,     101,     100
       4,      33,      32,     102,     101
       5,      32,      31,     103,     102
       6,      31,       2,     104,     103
       7,       2,       9,     105,     104
       8,       9,       8,     106,     105
       9,       8,       7,     107,     106
      10,       7,       6,     108,     107
      11,       6,       5,     109,     108
      12,       5,       4,     110,     109
      13,       4,       3,     111,     110
      14,       3,       1,      11,     111
      15,      11,      12,     112,     111
      16,      12,      13,     113,     112
      17,      13,      14,     114,     113
      18,      14,      15,     115,     114
      19,      15,      16,     116,     115
      20,      16,      17,     117,     116
** ... 48 like lines cut
*ELEMENT, TYPE=S4R, ELSET=EB2
      69,      20,      21,      54,      45
      70,      21,      22,      55,      54
      71,      22,      23,      56,      55
      72,      23,      24,      57,      56
      73,      24,      25,      58,      57
      74,      25,      26,      59,      58
      75,      26,      27,      60,      59
      76,      27,      28,      61,      60
      77,      28,      29,      62,      61
      78,      29,       1,       3,      62
      79,       3,       4,      63,      62
      80,       4,       5,      64,      63
      81,       5,       6,      65,      64
      82,       6,       7,      66,      65
      83,       7,       8,      67,      66
      84,       8,       9,      68,      67
      85,       9,       2,      69,      68
      86,       2,      31,      70,      69
      87,      31,      32,      71,      70
      88,      32,      33,      72,      71
** ... 41 like lines cut
**
********************************** S I D E S E T S **********************************
*ELSET, ELSET=SS1_E1
      28,      29,      30,      92,      93,      94,      95
*ELSET, ELSET=SS1_E2
      23
*ELSET, ELSET=SS1_E4
      24,      69
*SURFACE, NAME=SS1
SS1_E1, E1
SS1_E2, E2
SS1_E4, E4
*ELSET, ELSET=SS2_E1
      15,      16,      17,      18,      19,      20,      21,      22,      23,      24,
      25,      26,      27,      69,      70,      71,      72,      73,      74,      75,
      76,      77,      78,      96,      97,      98
*ELSET, ELSET=SS2_E2
      14,      91
*ELSET, ELSET=SS2_E4
       1,      92
*SURFACE, NAME=SS2
SS2_E1, E1
SS2_E2, E2
SS2_E4, E4
*ELSET, ELSET=SS7_E1
       7,       8,       9,      10,      11,      12,      13,      14,      79,      80,
      81,      82,      83,      84,      85
*ELSET, ELSET=SS7_E2
      78
*SURFACE, NAME=SS7
SS7_E1, E1
SS7_E2, E2
*ELSET, ELSET=SS8_E1
       1,       2,       3,       4,       5,       6,      86,      87,      88,      89,
      90,      91
*SURFACE, NAME=SS8
SS8_E1, E1
**
********************************** P R O P E R T I E S ************************
*SHELL SECTION, ELSET=EB1, SECTION INTEGRATION=SIMPSON, MATERIAL=Default-Steel
1.000000e+00
*SHELL SECTION, ELSET=EB2, SECTION INTEGRATION=SIMPSON, MATERIAL=Default-Steel
1.000000e+00
**
*END PART
**
**
**
********************************** E N D   P A R T S **********************************
**
**
********************************** A S S E M B L Y ************************************
**
*ASSEMBLY, NAME=ASSEMBLY1
**
*INSTANCE, NAME=Part-Default_1, PART=Part-Default
*END INSTANCE
**
*END ASSEMBLY
**
**
**
*MATERIAL, NAME = Default-Steel
*ELASTIC, TYPE=ISOTROPIC
2.068000e+05, 2.900000e-01
*DENSITY
7.000000e-06
*CONDUCTIVITY,TYPE=ISO
4.500000e-02
*SPECIFIC HEAT
5.000000e+02
**
**
************************************** H I S T O R Y *************************************
**
*PREPRINT
**
**************************************** S T E P 1 ***************************************
*STEP,INC=100,NAME=Default Set
**
*STATIC
1, 1, 1e-05, 1
**
**
**
**
*END STEP
