*HEADING
cubit(tanyerickson/Desktop/test_mesh/BP3_2D_60d_v2_16blocks.inp): 05/07/2026: 10
version: 2024.8
**
********************************** P A R T S **********************************
*PART, NAME=Part-Default
**
********************************** N O D E S **********************************
*NODE, NSET=ALLNODES
       1,    4.000000e+01,   -6.928203e+01,    0.000000e+00
       2,    2.000000e+01,   -3.464102e+01,    0.000000e+00
       3,    3.000000e+01,   -5.196152e+01,    0.000000e+00
       4,    0.000000e+00,    0.000000e+00,    0.000000e+00
       5,    1.000000e+01,   -1.732051e+01,    0.000000e+00
       6,    8.000000e+01,   -6.928203e+01,    0.000000e+00
       7,    6.000000e+01,   -6.928203e+01,    0.000000e+00
       8,    4.000000e+01,    0.000000e+00,    0.000000e+00
       9,    2.000000e+01,    0.000000e+00,    0.000000e+00
      10,   -4.000000e+01,    0.000000e+00,    0.000000e+00
      11,   -2.000000e+01,    0.000000e+00,    0.000000e+00
      12,    0.000000e+00,   -6.928203e+01,    0.000000e+00
      13,    2.000000e+01,   -6.928203e+01,    0.000000e+00
      14,    7.000000e+01,   -5.196152e+01,    0.000000e+00
      15,    6.000000e+01,   -3.464102e+01,    0.000000e+00
      16,    5.000000e+01,   -1.732051e+01,    0.000000e+00
      17,   -3.000000e+01,   -1.732051e+01,    0.000000e+00
      18,   -2.000000e+01,   -3.464102e+01,    0.000000e+00
      19,   -1.000000e+01,   -5.196152e+01,    0.000000e+00
      20,    5.000000e+01,   -5.196152e+01,    0.000000e+00
** ... 5 like lines cut
**
********************************** E L E M E N T S ****************************
*ELEMENT, TYPE=S4R, ELSET=EB1
       1,       1,       3,      23,      13
       2,       3,       2,      24,      23
       3,       2,       5,      25,      24
       4,       5,       4,      11,      25
       5,      13,      23,      19,      12
       6,      23,      24,      18,      19
       7,      24,      25,      17,      18
       8,      25,      11,      10,      17
*ELEMENT, TYPE=S4R, ELSET=EB2
       9,       1,       7,      20,       3
      10,       7,       6,      14,      20
      11,       3,      20,      21,       2
      12,      20,      14,      15,      21
      13,       2,      21,      22,       5
      14,      21,      15,      16,      22
      15,       5,      22,       9,       4
      16,      22,      16,       8,       9
**
********************************** S I D E S E T S **********************************
*ELSET, ELSET=SS1_E2
      10,      12,      14,      16
*ELSET, ELSET=SS1_E3
       5,       6,       7,       8
*SURFACE, NAME=SS1
SS1_E2, E2
SS1_E3, E3
*ELSET, ELSET=SS2_E1
       9,      10
*ELSET, ELSET=SS2_E2
       4,       8
*ELSET, ELSET=SS2_E3
      15,      16
*ELSET, ELSET=SS2_E4
       1,       5
*SURFACE, NAME=SS2
SS2_E1, E1
SS2_E2, E2
SS2_E3, E3
SS2_E4, E4
*ELSET, ELSET=SS7_E1
       3,       4
*ELSET, ELSET=SS7_E4
      13,      15
*SURFACE, NAME=SS7
SS7_E1, E1
SS7_E4, E4
*ELSET, ELSET=SS8_E1
       1,       2
*ELSET, ELSET=SS8_E4
       9,      11
*SURFACE, NAME=SS8
SS8_E1, E1
SS8_E4, E4
**
********************************** P R O P E R T I E S ************************
*SHELL SECTION, ELSET=EB1, SECTION INTEGRATION=SIMPSON, MATERIAL=Default-Steel
1.000000e+00
*SHELL SECTION, ELSET=EB2, SECTION INTEGRATION=SIMPSON, MATERIAL=Default-Steel
1.000000e+00
**
*END PART
**
**
**
********************************** E N D   P A R T S **********************************
**
**
********************************** A S S E M B L Y ************************************
**
*ASSEMBLY, NAME=ASSEMBLY1
**
*INSTANCE, NAME=Part-Default_1, PART=Part-Default
*END INSTANCE
**
*END ASSEMBLY
**
**
**
*MATERIAL, NAME = Default-Steel
*ELASTIC, TYPE=ISOTROPIC
2.068000e+05, 2.900000e-01
*DENSITY
7.000000e-06
*CONDUCTIVITY,TYPE=ISO
4.500000e-02
*SPECIFIC HEAT
5.000000e+02
**
**
************************************** H I S T O R Y *************************************
**
*PREPRINT
**
**************************************** S T E P 1 ***************************************
*STEP,INC=100,NAME=Default Set
**
*STATIC
1, 1, 1e-05, 1
**
**
**
**
*END STEP
