*HEADING
cubit(tanyerickson/Desktop/test_mesh/BP9_2D_60d_v2_32blocks.inp): 05/07/2026: 09
version: 2024.8
**
********************************** P A R T S **********************************
*PART, NAME=Part-Default
**
********************************** N O D E S **********************************
*NODE, NSET=ALLNODES
       1,    0.000000e+00,    0.000000e+00,    0.000000e+00
       2,   -6.000000e+01,    0.000000e+00,    0.000000e+00
       3,   -1.500000e+01,    0.000000e+00,    0.000000e+00
       4,   -3.000000e+01,    0.000000e+00,    0.000000e+00
       5,   -4.500000e+01,    0.000000e+00,    0.000000e+00
       6,    6.000000e+01,    0.000000e+00,    0.000000e+00
       7,    4.500000e+01,    0.000000e+00,    0.000000e+00
       8,    3.000000e+01,    0.000000e+00,    0.000000e+00
       9,    1.500000e+01,    0.000000e+00,    0.000000e+00
      10,   -6.000000e+01,   -6.000000e+01,    0.000000e+00
      11,   -6.000000e+01,   -1.500000e+01,    0.000000e+00
      12,   -6.000000e+01,   -3.000000e+01,    0.000000e+00
      13,   -6.000000e+01,   -4.500000e+01,    0.000000e+00
      14,    6.000000e+01,   -6.000000e+01,    0.000000e+00
      15,    6.000000e+01,   -4.500000e+01,    0.000000e+00
      16,    6.000000e+01,   -3.000000e+01,    0.000000e+00
      17,    6.000000e+01,   -1.500000e+01,    0.000000e+00
      18,    3.464102e+01,   -6.000000e+01,    0.000000e+00
      19,   -3.633975e+01,   -6.000000e+01,    0.000000e+00
      20,   -1.267949e+01,   -6.000000e+01,    0.000000e+00
** ... 25 like lines cut
**
********************************** E L E M E N T S ****************************
*ELEMENT, TYPE=S4R, ELSET=EB1
       1,      18,      26,      37,      21
       2,      26,      25,      38,      37
       3,      25,      27,      39,      38
       4,      27,       1,       3,      39
       5,      21,      37,      40,      20
       6,      37,      38,      41,      40
       7,      38,      39,      42,      41
       8,      39,       3,       4,      42
       9,      20,      40,      43,      19
      10,      40,      41,      44,      43
      11,      41,      42,      45,      44
      12,      42,       4,       5,      45
      13,      19,      43,      13,      10
      14,      43,      44,      12,      13
      15,      44,      45,      11,      12
      16,      45,       5,       2,      11
*ELEMENT, TYPE=S4R, ELSET=EB2
      17,      18,      22,      28,      26
      18,      22,      23,      29,      28
      19,      23,      24,      30,      29
      20,      24,      14,      15,      30
      21,      26,      28,      31,      25
      22,      28,      29,      32,      31
      23,      29,      30,      33,      32
      24,      30,      15,      16,      33
      25,      25,      31,      34,      27
      26,      31,      32,      35,      34
      27,      32,      33,      36,      35
      28,      33,      16,      17,      36
      29,      27,      34,       9,       1
      30,      34,      35,       8,       9
      31,      35,      36,       7,       8
      32,      36,      17,       6,       7
**
********************************** S I D E S E T S **********************************
*ELSET, ELSET=SS1_E2
      20,      24,      28,      32
*ELSET, ELSET=SS1_E3
      13,      14,      15,      16
*SURFACE, NAME=SS1
SS1_E2, E2
SS1_E3, E3
*ELSET, ELSET=SS2_E1
      17,      18,      19,      20
*ELSET, ELSET=SS2_E2
       4,       8,      12,      16
*ELSET, ELSET=SS2_E3
      29,      30,      31,      32
*ELSET, ELSET=SS2_E4
       1,       5,       9,      13
*SURFACE, NAME=SS2
SS2_E1, E1
SS2_E2, E2
SS2_E3, E3
SS2_E4, E4
*ELSET, ELSET=SS7_E1
       3,       4
*ELSET, ELSET=SS7_E4
      25,      29
*SURFACE, NAME=SS7
SS7_E1, E1
SS7_E4, E4
*ELSET, ELSET=SS8_E1
       1,       2
*ELSET, ELSET=SS8_E4
      17,      21
*SURFACE, NAME=SS8
SS8_E1, E1
SS8_E4, E4
**
********************************** P R O P E R T I E S ************************
*SHELL SECTION, ELSET=EB1, SECTION INTEGRATION=SIMPSON, MATERIAL=Default-Steel
1.000000e+00
*SHELL SECTION, ELSET=EB2, SECTION INTEGRATION=SIMPSON, MATERIAL=Default-Steel
1.000000e+00
**
*END PART
**
**
**
********************************** E N D   P A R T S **********************************
**
**
********************************** A S S E M B L Y ************************************
**
*ASSEMBLY, NAME=ASSEMBLY1
**
*INSTANCE, NAME=Part-Default_1, PART=Part-Default
*END INSTANCE
**
*END ASSEMBLY
**
**
**
*MATERIAL, NAME = Default-Steel
*ELASTIC, TYPE=ISOTROPIC
2.068000e+05, 2.900000e-01
*DENSITY
7.000000e-06
*CONDUCTIVITY,TYPE=ISO
4.500000e-02
*SPECIFIC HEAT
5.000000e+02
**
**
************************************** H I S T O R Y *************************************
**
*PREPRINT
**
**************************************** S T E P 1 ***************************************
*STEP,INC=100,NAME=Default Set
**
*STATIC
1, 1, 1e-05, 1
**
**
**
**
*END STEP
