*HEADING
cubit(sers/brittanyerickson/Desktop/test_mesh/BP9_2D_60d_v1.inp): 05/07/2026: 08
version: 2024.8
**
********************************** P A R T S **********************************
*PART, NAME=Part-Default
**
********************************** N O D E S **********************************
*NODE, NSET=ALLNODES
       1,    0.000000e+00,    0.000000e+00,    0.000000e+00
       2,    2.000000e+01,   -3.464102e+01,    0.000000e+00
       3,    1.000000e+00,   -1.732051e+00,    0.000000e+00
       4,    2.000000e+00,   -3.464102e+00,    0.000000e+00
       5,    3.000000e+00,   -5.196152e+00,    0.000000e+00
       6,    4.000000e+00,   -6.928203e+00,    0.000000e+00
       7,    5.000000e+00,   -8.660254e+00,    0.000000e+00
       8,    6.000000e+00,   -1.039230e+01,    0.000000e+00
       9,    7.000000e+00,   -1.212436e+01,    0.000000e+00
      10,    8.000000e+00,   -1.385641e+01,    0.000000e+00
      11,    9.000000e+00,   -1.558846e+01,    0.000000e+00
      12,    1.000000e+01,   -1.732051e+01,    0.000000e+00
      13,    1.100000e+01,   -1.905256e+01,    0.000000e+00
      14,    1.200000e+01,   -2.078461e+01,    0.000000e+00
      15,    1.300000e+01,   -2.251666e+01,    0.000000e+00
      16,    1.400000e+01,   -2.424871e+01,    0.000000e+00
      17,    1.500000e+01,   -2.598076e+01,    0.000000e+00
      18,    1.600000e+01,   -2.771281e+01,    0.000000e+00
      19,    1.700000e+01,   -2.944486e+01,    0.000000e+00
      20,    1.800000e+01,   -3.117691e+01,    0.000000e+00
** ... 215 like lines cut
**
********************************** E L E M E N T S ****************************
*ELEMENT, TYPE=S4R, ELSET=EB1
       1,      40,      43,     126,      63
       2,      43,      42,     127,     126
       3,      42,      41,     128,     127
       4,      41,       2,     129,     128
       5,       2,      21,     130,     129
       6,      21,      20,     131,     130
       7,      20,      19,     132,     131
       8,      19,      18,     133,     132
       9,      18,      17,     134,     133
      10,      17,      16,     135,     134
      11,      16,      15,     136,     135
      12,      15,      14,     137,     136
      13,      14,      13,     138,     137
      14,      13,      12,     139,     138
      15,      12,      11,     140,     139
      16,      11,      10,     141,     140
      17,      10,       9,     142,     141
      18,       9,       8,     143,     142
      19,       8,       7,     144,     143
      20,       7,       6,     145,     144
** ... 113 like lines cut
*ELEMENT, TYPE=S4R, ELSET=EB2
     134,       5,       6,      68,      67
     135,       6,       7,      69,      68
     136,       7,       8,      70,      69
     137,       8,       9,      71,      70
     138,       9,      10,      72,      71
     139,      10,      11,      73,      72
     140,      11,      12,      74,      73
     141,      12,      13,      75,      74
     142,      13,      14,      76,      75
     143,      14,      15,      77,      76
     144,      15,      16,      78,      77
     145,      16,      17,      79,      78
     146,      17,      18,      80,      79
     147,      18,      19,      81,      80
     148,      19,      20,      82,      81
     149,      20,      21,      83,      82
     150,      21,       2,     104,      83
     151,       2,      41,      84,     104
     152,      41,      42,      85,      84
     153,      42,      43,      86,      85
** ... 60 like lines cut
**
********************************** S I D E S E T S **********************************
*ELSET, ELSET=SS1_E1
      33,      34,      35,      36,      37,     164,     165,     166,     167
*ELSET, ELSET=SS1_E2
      32,     163
*ELSET, ELSET=SS1_E4
     155
*SURFACE, NAME=SS1
SS1_E1, E1
SS1_E2, E2
SS1_E4, E4
*ELSET, ELSET=SS2_E1
      25,      26,      27,      28,      29,      30,      31,      32,      38,      39,
      40,      41,      42,      43,      44,     155,     156,     157,     158,     159,
     160,     161,     162,     163,     209
*ELSET, ELSET=SS2_E2
      24,      37,     154
*ELSET, ELSET=SS2_E3
     210
*ELSET, ELSET=SS2_E4
       1
*SURFACE, NAME=SS2
SS2_E1, E1
SS2_E2, E2
SS2_E3, E3
SS2_E4, E4
*ELSET, ELSET=SS7_E1
       5,       6,       7,       8,       9,      10,      11,      12,      13,      14,
      15,      16,      17,      18,      19,      20,      21,      22,      23,      24,
     134,     135,     136,     137,     138,     139,     140,     141,     142,     143,
     144,     145,     146,     147,     148,     149,     150
*ELSET, ELSET=SS7_E2
     209,     211,     212
*SURFACE, NAME=SS7
SS7_E1, E1
SS7_E2, E2
*ELSET, ELSET=SS8_E1
       1,       2,       3,       4,     151,     152,     153,     154
*SURFACE, NAME=SS8
SS8_E1, E1
**
********************************** P R O P E R T I E S ************************
*SHELL SECTION, ELSET=EB1, SECTION INTEGRATION=SIMPSON, MATERIAL=Default-Steel
1.000000e+00
*SHELL SECTION, ELSET=EB2, SECTION INTEGRATION=SIMPSON, MATERIAL=Default-Steel
1.000000e+00
**
*END PART
**
**
**
********************************** E N D   P A R T S **********************************
**
**
********************************** A S S E M B L Y ************************************
**
*ASSEMBLY, NAME=ASSEMBLY1
**
*INSTANCE, NAME=Part-Default_1, PART=Part-Default
*END INSTANCE
**
*END ASSEMBLY
**
**
**
*MATERIAL, NAME = Default-Steel
*ELASTIC, TYPE=ISOTROPIC
2.068000e+05, 2.900000e-01
*DENSITY
7.000000e-06
*CONDUCTIVITY,TYPE=ISO
4.500000e-02
*SPECIFIC HEAT
5.000000e+02
**
**
************************************** H I S T O R Y *************************************
**
*PREPRINT
**
**************************************** S T E P 1 ***************************************
*STEP,INC=100,NAME=Default Set
**
*STATIC
1, 1, 1e-05, 1
**
**
**
**
*END STEP
