*HEADING
cubit(sers/brittanyerickson/Desktop/test_mesh/BP9_2D_90d_v5.inp): 04/06/2026: 13
version: 2024.8
**
********************************** P A R T S **********************************
*PART, NAME=Part-Default
**
********************************** N O D E S **********************************
*NODE, NSET=ALLNODES
       1,    0.000000e+00,    0.000000e+00,    0.000000e+00
       2,    0.000000e+00,   -4.000000e+01,    0.000000e+00
       3,    0.000000e+00,   -3.000000e+00,    0.000000e+00
       4,    0.000000e+00,   -6.911726e+00,    0.000000e+00
       5,    0.000000e+00,   -1.180882e+01,    0.000000e+00
       6,    0.000000e+00,   -1.769260e+01,    0.000000e+00
       7,    0.000000e+00,   -2.448041e+01,    0.000000e+00
       8,    0.000000e+00,   -3.200000e+01,    0.000000e+00
       9,    0.000000e+00,   -8.000000e+01,    0.000000e+00
      10,    0.000000e+00,   -6.000000e+01,    0.000000e+00
      11,   -4.000000e+01,    0.000000e+00,    0.000000e+00
      12,   -4.000000e+01,   -8.000000e+01,    0.000000e+00
      13,   -4.000000e+01,   -2.000000e+01,    0.000000e+00
      14,   -4.000000e+01,   -4.000000e+01,    0.000000e+00
      15,   -4.000000e+01,   -6.000000e+01,    0.000000e+00
      16,    4.000000e+01,   -8.000000e+01,    0.000000e+00
      17,    4.000000e+01,    0.000000e+00,    0.000000e+00
      18,    4.000000e+01,   -6.000000e+01,    0.000000e+00
      19,    4.000000e+01,   -4.000000e+01,    0.000000e+00
      20,    4.000000e+01,   -2.000000e+01,    0.000000e+00
** ... 40 like lines cut
**
********************************** E L E M E N T S ****************************
*ELEMENT, TYPE=S4R, ELSET=EB1
       1,       1,      23,      48,       3
       2,      23,      24,      54,      48
       3,      26,      27,      49,      57
       4,      27,      28,      50,      49
       5,      28,      11,      13,      50
       6,       9,      10,      56,      21
       7,      10,       2,      55,      56
       8,       2,       8,      51,      55
       9,       8,       7,      52,      51
      10,       7,       6,      59,      52
      11,       6,       5,      53,      59
      12,      13,      14,      55,      50
      13,      14,      15,      56,      55
      14,      15,      12,      21,      56
      15,      55,      51,      49,      50
      16,      51,      52,      57,      49
      17,      54,      24,      25,      58
      18,      58,      25,      26,      57
      19,      59,      53,      54,      58
      20,      57,      52,      59,      58
      21,      53,       5,       4,      60
      22,      60,       4,       3,      48
      23,      54,      53,      60,      48
*ELEMENT, TYPE=S4R, ELSET=EB2
      24,       1,       3,      35,      34
      25,       5,       6,      45,      36
      26,       6,       7,      37,      45
      27,       7,       8,      38,      37
      28,       8,       2,      39,      38
      29,       2,      10,      40,      39
      30,      10,       9,      22,      40
      31,      17,      29,      41,      20
      32,      31,      32,      43,      42
      33,      32,      33,      44,      43
      34,      33,      34,      35,      44
      35,      22,      16,      18,      40
      36,      18,      19,      39,      40
      37,      19,      20,      41,      39
      38,      44,      36,      45,      43
      39,      46,      41,      29,      30
      40,      46,      30,      31,      42
      41,      35,       3,       4,      47
      42,      47,       4,       5,      36
      43,      44,      35,      47,      36
      44,      37,      42,      43,      45
      45,      38,      39,      41,      46
      46,      38,      46,      42,      37
**
********************************** S I D E S E T S **********************************
*ELSET, ELSET=SS1_E1
      12,      13,      14,      36,      37
*ELSET, ELSET=SS1_E2
       5,      35
*ELSET, ELSET=SS1_E4
      31
*SURFACE, NAME=SS1
SS1_E1, E1
SS1_E2, E2
SS1_E4, E4
*ELSET, ELSET=SS2_E1
       1,       2,       3,       4,       5,      31,      32,      33,      34,      35
*ELSET, ELSET=SS2_E2
      14,      17,      18,      30,      40
*ELSET, ELSET=SS2_E3
      39
*ELSET, ELSET=SS2_E4
       6,      24
*SURFACE, NAME=SS2
SS2_E1, E1
SS2_E2, E2
SS2_E3, E3
SS2_E4, E4
*ELSET, ELSET=SS7_E1
       8,       9,      10,      11,      24,      25,      26,      27,      28
*ELSET, ELSET=SS7_E2
      21,      22,      41,      42
*ELSET, ELSET=SS7_E4
       1
*SURFACE, NAME=SS7
SS7_E1, E1
SS7_E2, E2
SS7_E4, E4
*ELSET, ELSET=SS8_E1
       6,       7,      29,      30
*SURFACE, NAME=SS8
SS8_E1, E1
**
********************************** P R O P E R T I E S ************************
*SHELL SECTION, ELSET=EB1, SECTION INTEGRATION=SIMPSON, MATERIAL=Default-Steel
1.000000e+00
*SHELL SECTION, ELSET=EB2, SECTION INTEGRATION=SIMPSON, MATERIAL=Default-Steel
1.000000e+00
**
*END PART
**
**
**
********************************** E N D   P A R T S **********************************
**
**
********************************** A S S E M B L Y ************************************
**
*ASSEMBLY, NAME=ASSEMBLY1
**
*INSTANCE, NAME=Part-Default_1, PART=Part-Default
*END INSTANCE
**
*END ASSEMBLY
**
**
**
*MATERIAL, NAME = Default-Steel
*ELASTIC, TYPE=ISOTROPIC
2.068000e+05, 2.900000e-01
*DENSITY
7.000000e-06
*CONDUCTIVITY,TYPE=ISO
4.500000e-02
*SPECIFIC HEAT
5.000000e+02
**
**
************************************** H I S T O R Y *************************************
**
*PREPRINT
**
**************************************** S T E P 1 ***************************************
*STEP,INC=100,NAME=Default Set
**
*STATIC
1, 1, 1e-05, 1
**
**
**
**
*END STEP
