*HEADING
cubit(sers/brittanyerickson/Desktop/test_mesh/BP9_2D_60d_v1.inp): 05/19/2026: 16
version: 2024.8
**
********************************** P A R T S **********************************
*PART, NAME=Part-Default
**
********************************** N O D E S **********************************
*NODE, NSET=ALLNODES
       1,    0.000000e+00,    0.000000e+00,    0.000000e+00
       2,    2.000000e+01,   -3.464102e+01,    0.000000e+00
       3,    6.666667e+00,   -1.154701e+01,    0.000000e+00
       4,    1.333333e+01,   -2.309401e+01,    0.000000e+00
       5,   -6.000000e+01,    0.000000e+00,    0.000000e+00
       6,   -1.200000e+01,    0.000000e+00,    0.000000e+00
       7,   -1.745154e+01,    0.000000e+00,    0.000000e+00
       8,   -2.065721e+01,    0.000000e+00,    0.000000e+00
       9,   -2.305738e+01,    0.000000e+00,    0.000000e+00
      10,   -2.532624e+01,    0.000000e+00,    0.000000e+00
      11,   -2.802940e+01,    0.000000e+00,    0.000000e+00
      12,   -3.210851e+01,    0.000000e+00,    0.000000e+00
      13,   -4.000000e+01,    0.000000e+00,    0.000000e+00
      14,    6.000000e+01,    0.000000e+00,    0.000000e+00
      15,    4.000000e+01,    0.000000e+00,    0.000000e+00
      16,    3.210851e+01,    0.000000e+00,    0.000000e+00
      17,    2.802940e+01,    0.000000e+00,    0.000000e+00
      18,    2.532624e+01,    0.000000e+00,    0.000000e+00
      19,    2.305738e+01,    0.000000e+00,    0.000000e+00
      20,    2.065721e+01,    0.000000e+00,    0.000000e+00
** ... 59 like lines cut
**
********************************** E L E M E N T S ****************************
*ELEMENT, TYPE=S4R, ELSET=EB1
       1,       9,      10,      56,      55
       2,      10,      11,      57,      56
       3,      11,      12,      58,      57
       4,      12,      13,      59,      58
       5,      13,       5,      28,      59
       6,       9,      55,      60,       8
       7,      55,      61,      74,      60
       8,      55,      56,      62,      61
       9,      56,      57,      78,      62
      10,      57,      58,      63,      78
      11,      58,      59,      28,      63
      12,       1,       6,      64,       3
      13,      23,      26,      65,      36
      14,      26,      25,      66,      65
      15,      25,      24,      72,      66
      16,      24,       2,      67,      72
      17,       2,       4,      68,      67
      18,       4,       3,      64,      68
      19,      27,      33,      69,      29
      20,      33,      34,      70,      69
** ... 16 like lines cut
*ELEMENT, TYPE=S4R, ELSET=EB2
      37,      19,      20,      38,      37
      38,      20,      21,      39,      38
      39,      21,      22,      40,      39
      40,      22,       1,       3,      40
      41,      19,      37,      41,      18
      42,      37,      43,      42,      41
      43,      38,      39,      43,      37
      44,      39,      40,      44,      43
      45,      40,       3,       4,      44
      46,      44,       4,       2,      46
      47,       2,      24,      45,      46
      48,      24,      25,      48,      45
      49,      25,      26,      49,      48
      50,      26,      23,      30,      49
      51,      30,      31,      50,      49
      52,      44,      46,      42,      43
      53,      47,      52,      15,      16
      54,      47,      16,      17,      51
      55,      17,      18,      41,      51
      56,      50,      31,      32,      52
** ... 7 like lines cut
**
********************************** S I D E S E T S **********************************
*ELSET, ELSET=SS1_E1
      51,      57
*ELSET, ELSET=SS1_E2
       5,      56
*ELSET, ELSET=SS1_E3
      36
*ELSET, ELSET=SS1_E4
      19
*SURFACE, NAME=SS1
SS1_E1, E1
SS1_E2, E2
SS1_E3, E3
SS1_E4, E4
*ELSET, ELSET=SS2_E1
       1,       2,       3,       4,       5,      12,      19,      20,      21,      22,
      28,      37,      38,      39,      40,      55
*ELSET, ELSET=SS2_E2
      50,      54,      57
*ELSET, ELSET=SS2_E3
      53
*ELSET, ELSET=SS2_E4
       6,      13,      27,      41
*SURFACE, NAME=SS2
SS2_E1, E1
SS2_E2, E2
SS2_E3, E3
SS2_E4, E4
*ELSET, ELSET=SS7_E1
      17,      18
*ELSET, ELSET=SS7_E2
      40,      45,      46
*ELSET, ELSET=SS7_E4
      12
*SURFACE, NAME=SS7
SS7_E1, E1
SS7_E2, E2
SS7_E4, E4
*ELSET, ELSET=SS8_E1
      13,      14,      15,      16,      47,      48,      49,      50
*SURFACE, NAME=SS8
SS8_E1, E1
**
********************************** P R O P E R T I E S ************************
*SHELL SECTION, ELSET=EB1, SECTION INTEGRATION=SIMPSON, MATERIAL=Default-Steel
1.000000e+00
*SHELL SECTION, ELSET=EB2, SECTION INTEGRATION=SIMPSON, MATERIAL=Default-Steel
1.000000e+00
**
*END PART
**
**
**
********************************** E N D   P A R T S **********************************
**
**
********************************** A S S E M B L Y ************************************
**
*ASSEMBLY, NAME=ASSEMBLY1
**
*INSTANCE, NAME=Part-Default_1, PART=Part-Default
*END INSTANCE
**
*END ASSEMBLY
**
**
**
*MATERIAL, NAME = Default-Steel
*ELASTIC, TYPE=ISOTROPIC
2.068000e+05, 2.900000e-01
*DENSITY
7.000000e-06
*CONDUCTIVITY,TYPE=ISO
4.500000e-02
*SPECIFIC HEAT
5.000000e+02
**
**
************************************** H I S T O R Y *************************************
**
*PREPRINT
**
**************************************** S T E P 1 ***************************************
*STEP,INC=100,NAME=Default Set
**
*STATIC
1, 1, 1e-05, 1
**
**
**
**
*END STEP
