*HEADING
cubit(rittanyerickson/Desktop/test_mesh/BP9_2D__60degree_v4.inp): 05/29/2026: 15
version: 2024.8
**
********************************** P A R T S **********************************
*PART, NAME=Part-Default
**
********************************** N O D E S **********************************
*NODE, NSET=ALLNODES
       1,    0.000000e+00,    0.000000e+00,    0.000000e+00
       2,   -4.000000e+01,    0.000000e+00,    0.000000e+00
       3,   -5.000000e+00,    0.000000e+00,    0.000000e+00
       4,   -8.021173e+00,    0.000000e+00,    0.000000e+00
       5,   -1.030160e+01,    0.000000e+00,    0.000000e+00
       6,   -1.243863e+01,    0.000000e+00,    0.000000e+00
       7,   -1.492095e+01,    0.000000e+00,    0.000000e+00
       8,   -1.850583e+01,    0.000000e+00,    0.000000e+00
       9,   -2.500000e+01,    0.000000e+00,    0.000000e+00
      10,    4.000000e+01,    0.000000e+00,    0.000000e+00
      11,    2.500000e+01,    0.000000e+00,    0.000000e+00
      12,    1.850583e+01,    0.000000e+00,    0.000000e+00
      13,    1.492095e+01,    0.000000e+00,    0.000000e+00
      14,    1.243863e+01,    0.000000e+00,    0.000000e+00
      15,    1.030160e+01,    0.000000e+00,    0.000000e+00
      16,    8.021173e+00,    0.000000e+00,    0.000000e+00
      17,    5.000000e+00,    0.000000e+00,    0.000000e+00
      18,    4.000000e+01,   -6.928000e+01,    0.000000e+00
      19,    2.000000e+01,   -3.464000e+01,    0.000000e+00
      20,    3.249983e+01,   -5.628971e+01,    0.000000e+00
** ... 90 like lines cut
**
********************************** E L E M E N T S ****************************
*ELEMENT, TYPE=S4R, ELSET=EB1
       1,      18,      20,      75,      47
       2,      20,      21,      76,      75
       3,      21,      22,      77,      76
       4,      22,      23,      78,      77
       5,      23,      24,      99,      78
       6,      24,      25,      79,      99
       7,      25,      26,      80,      79
       8,      26,      19,      81,      80
       9,      19,      33,      82,      81
      10,      33,      32,      83,      82
      11,      30,      29,      86,      85
      12,      29,      28,      87,      86
      13,      28,      27,      88,      87
      14,      27,       1,       3,      88
      15,       3,       4,      89,      88
      16,       4,       5,      90,      89
      17,       5,       6,      91,      90
      18,       6,       7,      92,      91
      19,       7,       8,      93,      92
      20,       8,       9,      94,      93
** ... 31 like lines cut
*ELEMENT, TYPE=S4R, ELSET=EB2
      52,       1,      27,      48,      17
      53,      27,      28,      49,      48
      54,      28,      29,      50,      49
      55,      29,      30,      51,      50
      56,      30,      31,      71,      51
      57,      31,      32,      70,      71
      58,      32,      33,      52,      70
      59,      33,      19,      53,      52
      60,      19,      26,      54,      53
      61,      26,      25,      55,      54
      62,      25,      24,      56,      55
      63,      24,      23,      57,      56
      64,      23,      22,      58,      57
      65,      22,      21,      59,      58
      66,      21,      20,      60,      59
      67,      20,      18,      44,      60
      68,      10,      11,      61,      38
      69,      11,      12,      62,      61
      70,      12,      13,      63,      62
      71,      13,      14,      64,      63
** ... 22 like lines cut
**
********************************** S I D E S E T S **********************************
*ELSET, ELSET=SS1_E1
      23,      24,      75,      76,      77
*ELSET, ELSET=SS1_E2
      21,      74
*ELSET, ELSET=SS1_E3
      42,      43
*ELSET, ELSET=SS1_E4
      68
*SURFACE, NAME=SS1
SS1_E1, E1
SS1_E2, E2
SS1_E3, E3
SS1_E4, E4
*ELSET, ELSET=SS2_E1
      15,      16,      17,      18,      19,      20,      21,      22,      68,      69,
      70,      71,      72,      73,      74,      89
*ELSET, ELSET=SS2_E2
      14,      67
*ELSET, ELSET=SS2_E3
      41
*ELSET, ELSET=SS2_E4
       1,      52,      90
*SURFACE, NAME=SS2
SS2_E1, E1
SS2_E2, E2
SS2_E3, E3
SS2_E4, E4
*ELSET, ELSET=SS7_E1
       9,      10,      11,      12,      13,      14,      52,      53,      54,      55,
      56,      57,      58,      59
*ELSET, ELSET=SS7_E2
      39,      40
*SURFACE, NAME=SS7
SS7_E1, E1
SS7_E2, E2
*ELSET, ELSET=SS8_E1
       1,       2,       3,       4,       5,       6,       7,       8,      60,      61,
      62,      63,      64,      65,      66,      67
*SURFACE, NAME=SS8
SS8_E1, E1
**
********************************** P R O P E R T I E S ************************
*SHELL SECTION, ELSET=EB1, SECTION INTEGRATION=SIMPSON, MATERIAL=Default-Steel
1.000000e+00
*SHELL SECTION, ELSET=EB2, SECTION INTEGRATION=SIMPSON, MATERIAL=Default-Steel
1.000000e+00
**
*END PART
**
**
**
********************************** E N D   P A R T S **********************************
**
**
********************************** A S S E M B L Y ************************************
**
*ASSEMBLY, NAME=ASSEMBLY1
**
*INSTANCE, NAME=Part-Default_1, PART=Part-Default
*END INSTANCE
**
*END ASSEMBLY
**
**
**
*MATERIAL, NAME = Default-Steel
*ELASTIC, TYPE=ISOTROPIC
2.068000e+05, 2.900000e-01
*DENSITY
7.000000e-06
*CONDUCTIVITY,TYPE=ISO
4.500000e-02
*SPECIFIC HEAT
5.000000e+02
**
**
************************************** H I S T O R Y *************************************
**
*PREPRINT
**
**************************************** S T E P 1 ***************************************
*STEP,INC=100,NAME=Default Set
**
*STATIC
1, 1, 1e-05, 1
**
**
**
**
*END STEP
