*HEADING
cubit(brittanyerickson/Desktop/test_mesh/BP9_2D__60degree_3.inp): 05/29/2026: 15
version: 2024.8
**
********************************** P A R T S **********************************
*PART, NAME=Part-Default
**
********************************** N O D E S **********************************
*NODE, NSET=ALLNODES
       1,    0.000000e+00,    0.000000e+00,    0.000000e+00
       2,   -4.000000e+01,    0.000000e+00,    0.000000e+00
       3,   -5.000000e+00,    0.000000e+00,    0.000000e+00
       4,   -8.867455e+00,    0.000000e+00,    0.000000e+00
       5,   -1.223527e+01,    0.000000e+00,    0.000000e+00
       6,   -1.553329e+01,    0.000000e+00,    0.000000e+00
       7,   -1.916820e+01,    0.000000e+00,    0.000000e+00
       8,   -2.368065e+01,    0.000000e+00,    0.000000e+00
       9,   -3.000000e+01,    0.000000e+00,    0.000000e+00
      10,    4.000000e+01,    0.000000e+00,    0.000000e+00
      11,    3.000000e+01,    0.000000e+00,    0.000000e+00
      12,    2.368065e+01,    0.000000e+00,    0.000000e+00
      13,    1.916820e+01,    0.000000e+00,    0.000000e+00
      14,    1.553329e+01,    0.000000e+00,    0.000000e+00
      15,    1.223527e+01,    0.000000e+00,    0.000000e+00
      16,    8.867455e+00,    0.000000e+00,    0.000000e+00
      17,    5.000000e+00,    0.000000e+00,    0.000000e+00
      18,    4.000000e+01,   -6.928000e+01,    0.000000e+00
      19,    2.000000e+01,   -3.464000e+01,    0.000000e+00
      20,    3.499989e+01,   -6.061981e+01,    0.000000e+00
** ... 125 like lines cut
**
********************************** E L E M E N T S ****************************
*ELEMENT, TYPE=S4R, ELSET=EB1
       1,      18,      20,      96,      55
       2,      20,      21,      97,      96
       3,      21,      22,      98,      97
       4,      22,      23,      99,      98
       5,      23,      24,     100,      99
       6,      24,      25,     101,     100
       7,      25,      26,     102,     101
       8,      26,      19,     103,     102
       9,      19,      33,     104,     103
      10,      33,      32,     105,     104
      11,      32,      31,     106,     105
      12,      31,      30,     107,     106
      13,      30,      29,     108,     107
      14,      29,      28,     109,     108
      15,      28,      27,     110,     109
      16,      27,       1,       3,     110
      17,       3,       4,     111,     110
      18,       4,       5,     112,     111
      19,       5,       6,     113,     112
      20,       6,       7,     114,     113
** ... 47 like lines cut
*ELEMENT, TYPE=S4R, ELSET=EB2
      68,       1,      27,      56,      17
      69,      27,      28,      89,      56
      70,      28,      29,      57,      89
      71,      29,      30,      58,      57
      72,      30,      31,      59,      58
      73,      31,      32,      60,      59
      74,      32,      33,      61,      60
      75,      33,      19,      62,      61
      76,      19,      26,      63,      62
      77,      26,      25,      64,      63
      78,      25,      24,      65,      64
      79,      24,      23,      66,      65
      80,      23,      22,      67,      66
      81,      22,      21,      68,      67
      82,      21,      20,      69,      68
      83,      20,      18,      50,      69
      84,      11,      12,      71,      93
      85,      12,      13,      72,      71
      86,      13,      14,      73,      72
      87,      14,      15,      74,      73
** ... 37 like lines cut
**
********************************** S I D E S E T S **********************************
*ELSET, ELSET=SS1_E1
      24,      25,      26,      27,      28,      29,      30,      90,      91,      92,
      93,      94
*ELSET, ELSET=SS1_E2
      23,     107,     117
*ELSET, ELSET=SS1_E3
     106
*SURFACE, NAME=SS1
SS1_E1, E1
SS1_E2, E2
SS1_E3, E3
*ELSET, ELSET=SS2_E1
      17,      18,      19,      20,      21,      22,      23,      31,      32,      84,
      85,      86,      87,      88,      89,      95
*ELSET, ELSET=SS2_E2
      16,      30,      83,      96,     118
*ELSET, ELSET=SS2_E4
       1,      68,      90
*SURFACE, NAME=SS2
SS2_E1, E1
SS2_E2, E2
SS2_E4, E4
*ELSET, ELSET=SS7_E1
       9,      10,      11,      12,      13,      14,      15,      16,      68,      69,
      70,      71,      72,      73,      74,      75
*SURFACE, NAME=SS7
SS7_E1, E1
*ELSET, ELSET=SS8_E1
       1,       2,       3,       4,       5,       6,       7,       8,      76,      77,
      78,      79,      80,      81,      82,      83
*SURFACE, NAME=SS8
SS8_E1, E1
**
********************************** P R O P E R T I E S ************************
*SHELL SECTION, ELSET=EB1, SECTION INTEGRATION=SIMPSON, MATERIAL=Default-Steel
1.000000e+00
*SHELL SECTION, ELSET=EB2, SECTION INTEGRATION=SIMPSON, MATERIAL=Default-Steel
1.000000e+00
**
*END PART
**
**
**
********************************** E N D   P A R T S **********************************
**
**
********************************** A S S E M B L Y ************************************
**
*ASSEMBLY, NAME=ASSEMBLY1
**
*INSTANCE, NAME=Part-Default_1, PART=Part-Default
*END INSTANCE
**
*END ASSEMBLY
**
**
**
*MATERIAL, NAME = Default-Steel
*ELASTIC, TYPE=ISOTROPIC
2.068000e+05, 2.900000e-01
*DENSITY
7.000000e-06
*CONDUCTIVITY,TYPE=ISO
4.500000e-02
*SPECIFIC HEAT
5.000000e+02
**
**
************************************** H I S T O R Y *************************************
**
*PREPRINT
**
**************************************** S T E P 1 ***************************************
*STEP,INC=100,NAME=Default Set
**
*STATIC
1, 1, 1e-05, 1
**
**
**
**
*END STEP
