*HEADING
cubit(rittanyerickson/Desktop/test_mesh/BP9_2D__60degree_v1.inp): 05/29/2026: 15
version: 2024.8
**
********************************** P A R T S **********************************
*PART, NAME=Part-Default
**
********************************** N O D E S **********************************
*NODE, NSET=ALLNODES
       1,    0.000000e+00,    0.000000e+00,    0.000000e+00
       2,   -4.000000e+01,    0.000000e+00,    0.000000e+00
       3,   -2.000000e+00,    0.000000e+00,    0.000000e+00
       4,   -4.461859e+00,    0.000000e+00,    0.000000e+00
       5,   -7.515899e+00,    0.000000e+00,    0.000000e+00
       6,   -1.133302e+01,    0.000000e+00,    0.000000e+00
       7,   -1.613698e+01,    0.000000e+00,    0.000000e+00
       8,   -2.222611e+01,    0.000000e+00,    0.000000e+00
       9,   -3.000000e+01,    0.000000e+00,    0.000000e+00
      10,    4.000000e+01,    0.000000e+00,    0.000000e+00
      11,    3.000000e+01,    0.000000e+00,    0.000000e+00
      12,    2.222611e+01,    0.000000e+00,    0.000000e+00
      13,    1.613698e+01,    0.000000e+00,    0.000000e+00
      14,    1.133302e+01,    0.000000e+00,    0.000000e+00
      15,    7.515899e+00,    0.000000e+00,    0.000000e+00
      16,    4.461859e+00,    0.000000e+00,    0.000000e+00
      17,    2.000000e+00,    0.000000e+00,    0.000000e+00
      18,    4.000000e+01,   -6.928000e+01,    0.000000e+00
      19,    2.000000e+01,   -3.464000e+01,    0.000000e+00
      20,    3.499989e+01,   -6.061981e+01,    0.000000e+00
** ... 234 like lines cut
**
********************************** E L E M E N T S ****************************
*ELEMENT, TYPE=S4R, ELSET=EB1
       1,      18,      20,     155,      67
       2,      20,      21,     156,     155
       3,      21,      22,     157,     156
       4,      22,      23,     158,     157
       5,      23,      24,     159,     158
       6,      24,      25,     160,     159
       7,      25,      26,     161,     160
       8,      26,      19,     162,     161
       9,      19,      45,     163,     162
      10,      45,      44,     164,     163
      11,      44,      43,     165,     164
      12,      43,      42,     166,     165
      13,      42,      41,     167,     166
      14,      41,      40,     168,     167
      15,      40,      39,     169,     168
      16,      39,      38,     170,     169
      17,      38,      37,     171,     170
      18,      37,      36,     172,     171
      19,      36,      35,     173,     172
      20,      35,      34,     174,     173
** ... 103 like lines cut
*ELEMENT, TYPE=S4R, ELSET=EB2
     124,       1,      27,      68,      17
     125,      29,      30,      71,      70
     126,      30,      31,      72,      71
     127,      31,      32,      73,      72
     128,      32,      33,      74,      73
     129,      33,      34,      75,      74
     130,      34,      35,      76,      75
     131,      35,      36,      77,      76
     132,      36,      37,      78,      77
     133,      37,      38,      79,      78
     134,      38,      39,      80,      79
     135,      39,      40,      81,      80
     136,      40,      41,      82,      81
     137,      41,      42,      83,      82
     138,      42,      43,      84,      83
     139,      43,      44,      85,      84
     140,      44,      45,      86,      85
     141,      45,      19,      87,      86
     142,      19,      26,      88,      87
     143,      26,      25,      89,      88
** ... 90 like lines cut
**
********************************** S I D E S E T S **********************************
*ELSET, ELSET=SS1_E1
      36,      37,      38,      39,      40,     153,     154,     155,     156,     157,
     158,     159
*ELSET, ELSET=SS1_E2
      35
*ELSET, ELSET=SS1_E3
     108,     109
*ELSET, ELSET=SS1_E4
     148
*SURFACE, NAME=SS1
SS1_E1, E1
SS1_E2, E2
SS1_E3, E3
SS1_E4, E4
*ELSET, ELSET=SS2_E1
      29,      30,      31,      32,      33,      34,      35,      41,      42,     148,
     149,     150,     151,     152,     160,     161,     163
*ELSET, ELSET=SS2_E2
      28
*ELSET, ELSET=SS2_E3
     107,     226
*ELSET, ELSET=SS2_E4
       1,     124,     153,     162
*SURFACE, NAME=SS2
SS2_E1, E1
SS2_E2, E2
SS2_E3, E3
SS2_E4, E4
*ELSET, ELSET=SS7_E1
       9,      10,      11,      12,      13,      14,      15,      16,      17,      18,
      19,      20,      21,      22,      23,      24,      25,      26,      27,      28,
     124,     125,     126,     127,     128,     129,     130,     131,     132,     133,
     134,     135,     136,     137,     138,     139,     140,     141
*ELSET, ELSET=SS7_E2
     223,     224
*SURFACE, NAME=SS7
SS7_E1, E1
SS7_E2, E2
*ELSET, ELSET=SS8_E1
       1,       2,       3,       4,       5,       6,       7,       8,     142,     143,
     144,     145,     146,     147
*ELSET, ELSET=SS8_E3
     227,     228
*SURFACE, NAME=SS8
SS8_E1, E1
SS8_E3, E3
**
********************************** P R O P E R T I E S ************************
*SHELL SECTION, ELSET=EB1, SECTION INTEGRATION=SIMPSON, MATERIAL=Default-Steel
1.000000e+00
*SHELL SECTION, ELSET=EB2, SECTION INTEGRATION=SIMPSON, MATERIAL=Default-Steel
1.000000e+00
**
*END PART
**
**
**
********************************** E N D   P A R T S **********************************
**
**
********************************** A S S E M B L Y ************************************
**
*ASSEMBLY, NAME=ASSEMBLY1
**
*INSTANCE, NAME=Part-Default_1, PART=Part-Default
*END INSTANCE
**
*END ASSEMBLY
**
**
**
*MATERIAL, NAME = Default-Steel
*ELASTIC, TYPE=ISOTROPIC
2.068000e+05, 2.900000e-01
*DENSITY
7.000000e-06
*CONDUCTIVITY,TYPE=ISO
4.500000e-02
*SPECIFIC HEAT
5.000000e+02
**
**
************************************** H I S T O R Y *************************************
**
*PREPRINT
**
**************************************** S T E P 1 ***************************************
*STEP,INC=100,NAME=Default Set
**
*STATIC
1, 1, 1e-05, 1
**
**
**
**
*END STEP
