*HEADING
cubit(rittanyerickson/Desktop/test_mesh/BP9_2D__90degree_v1.inp): 05/21/2026: 10
version: 2024.8
**
********************************** P A R T S **********************************
*PART, NAME=Part-Default
**
********************************** N O D E S **********************************
*NODE, NSET=ALLNODES
       1,    0.000000e+00,    0.000000e+00,    0.000000e+00
       2,   -4.000000e+01,    0.000000e+00,    0.000000e+00
       3,   -2.000000e+00,    0.000000e+00,    0.000000e+00
       4,   -4.924899e+00,    0.000000e+00,    0.000000e+00
       5,   -9.012737e+00,    0.000000e+00,    0.000000e+00
       6,   -1.447484e+01,    0.000000e+00,    0.000000e+00
       7,   -2.145814e+01,    0.000000e+00,    0.000000e+00
       8,   -3.000000e+01,    0.000000e+00,    0.000000e+00
       9,    4.000000e+01,    0.000000e+00,    0.000000e+00
      10,    3.000000e+01,    0.000000e+00,    0.000000e+00
      11,    2.145814e+01,    0.000000e+00,    0.000000e+00
      12,    1.447484e+01,    0.000000e+00,    0.000000e+00
      13,    9.012737e+00,    0.000000e+00,    0.000000e+00
      14,    4.924899e+00,    0.000000e+00,    0.000000e+00
      15,    2.000000e+00,    0.000000e+00,    0.000000e+00
      16,    0.000000e+00,   -8.000000e+01,    0.000000e+00
      17,    0.000000e+00,   -4.000000e+01,    0.000000e+00
      18,    0.000000e+00,   -7.000000e+01,    0.000000e+00
      19,    0.000000e+00,   -6.145814e+01,    0.000000e+00
      20,    0.000000e+00,   -5.447484e+01,    0.000000e+00
** ... 224 like lines cut
**
********************************** E L E M E N T S ****************************
*ELEMENT, TYPE=S4R, ELSET=EB1
       1,      16,      18,     143,      64
       2,      18,      19,     144,     143
       3,      19,      20,     145,     144
       4,      20,      21,     146,     145
       5,      21,      22,     147,     146
       6,      22,      23,     148,     147
       7,      23,      17,     149,     148
       8,      17,      42,     150,     149
       9,      42,      41,     151,     150
      10,      41,      40,     152,     151
      11,      40,      39,     153,     152
      12,      39,      38,     154,     153
      13,      38,      37,     155,     154
      14,      37,      36,     156,     155
      15,      36,      35,     157,     156
      16,      35,      34,     158,     157
      17,      34,      33,     159,     158
      18,      33,      32,     160,     159
      19,      32,      31,     161,     160
      20,      31,      30,     162,     161
** ... 104 like lines cut
*ELEMENT, TYPE=S4R, ELSET=EB2
     125,       9,      10,      65,      50
     126,      10,      11,     116,      65
     127,      11,      12,      66,     116
     128,      12,      13,      67,      66
     129,      13,      14,      68,      67
     130,      14,      15,      69,      68
     131,      15,       1,      24,      69
     132,      24,      25,      70,      69
     133,      25,      26,      71,      70
     134,      26,      27,      72,      71
     135,      27,      28,      73,      72
     136,      28,      29,      74,      73
     137,      29,      30,      75,      74
     138,      30,      31,      76,      75
     139,      31,      32,      77,      76
     140,      32,      33,      78,      77
     141,      33,      34,      79,      78
     142,      34,      35,      80,      79
     143,      35,      36,      81,      80
     144,      36,      37,      82,      81
** ... 80 like lines cut
**
********************************** S I D E S E T S **********************************
*ELSET, ELSET=SS1_E1
      35,      36,      37,      38,      39,      40,     158,     159,     160,     161,
     162,     163,     164
*ELSET, ELSET=SS1_E2
      31
*ELSET, ELSET=SS1_E4
      32,     125
*SURFACE, NAME=SS1
SS1_E1, E1
SS1_E2, E2
SS1_E4, E4
*ELSET, ELSET=SS2_E1
      28,      29,      30,      31,      32,      33,      34,      60,     125,     126,
     127,     128,     129,     130,     131,     165,     166
*ELSET, ELSET=SS2_E2
      27,     117,     157
*ELSET, ELSET=SS2_E4
       1,     158
*SURFACE, NAME=SS2
SS2_E1, E1
SS2_E2, E2
SS2_E4, E4
*ELSET, ELSET=SS7_E1
       8,       9,      10,      11,      12,      13,      14,      15,      16,      17,
      18,      19,      20,      21,      22,      23,      24,      25,      26,      27,
     132,     133,     134,     135,     136,     137,     138,     139,     140,     141,
     142,     143,     144,     145,     146,     147,     148,     149,     150
*ELSET, ELSET=SS7_E2
     131
*SURFACE, NAME=SS7
SS7_E1, E1
SS7_E2, E2
*ELSET, ELSET=SS8_E1
       1,       2,       3,       4,       5,       6,       7,     151,     152,     153,
     154,     155,     156,     157
*SURFACE, NAME=SS8
SS8_E1, E1
**
********************************** P R O P E R T I E S ************************
*SHELL SECTION, ELSET=EB1, SECTION INTEGRATION=SIMPSON, MATERIAL=Default-Steel
1.000000e+00
*SHELL SECTION, ELSET=EB2, SECTION INTEGRATION=SIMPSON, MATERIAL=Default-Steel
1.000000e+00
**
*END PART
**
**
**
********************************** E N D   P A R T S **********************************
**
**
********************************** A S S E M B L Y ************************************
**
*ASSEMBLY, NAME=ASSEMBLY1
**
*INSTANCE, NAME=Part-Default_1, PART=Part-Default
*END INSTANCE
**
*END ASSEMBLY
**
**
**
*MATERIAL, NAME = Default-Steel
*ELASTIC, TYPE=ISOTROPIC
2.068000e+05, 2.900000e-01
*DENSITY
7.000000e-06
*CONDUCTIVITY,TYPE=ISO
4.500000e-02
*SPECIFIC HEAT
5.000000e+02
**
**
************************************** H I S T O R Y *************************************
**
*PREPRINT
**
**************************************** S T E P 1 ***************************************
*STEP,INC=100,NAME=Default Set
**
*STATIC
1, 1, 1e-05, 1
**
**
**
**
*END STEP
