*HEADING
cubit(tanyerickson/Desktop/test_mesh/BP9_2D_30d_v2_constant.inp): 03/17/2026: 14
version: 2024.8
**
********************************** P A R T S **********************************
*PART, NAME=Part-Default
**
********************************** N O D E S **********************************
*NODE, NSET=ALLNODES
       1,    0.000000e+00,    0.000000e+00,    0.000000e+00
       2,    3.464102e+01,   -2.000000e+01,    0.000000e+00
       3,   -8.000000e+02,    0.000000e+00,    0.000000e+00
       4,   -1.000000e+02,    0.000000e+00,    0.000000e+00
       5,   -2.000000e+02,    0.000000e+00,    0.000000e+00
       6,   -3.000000e+02,    0.000000e+00,    0.000000e+00
       7,   -4.000000e+02,    0.000000e+00,    0.000000e+00
       8,   -5.000000e+02,    0.000000e+00,    0.000000e+00
       9,   -6.000000e+02,    0.000000e+00,    0.000000e+00
      10,   -7.000000e+02,    0.000000e+00,    0.000000e+00
      11,    8.000000e+02,    0.000000e+00,    0.000000e+00
      12,    7.000000e+02,    0.000000e+00,    0.000000e+00
      13,    6.000000e+02,    0.000000e+00,    0.000000e+00
      14,    5.000000e+02,    0.000000e+00,    0.000000e+00
      15,    4.000000e+02,    0.000000e+00,    0.000000e+00
      16,    3.000000e+02,    0.000000e+00,    0.000000e+00
      17,    2.000000e+02,    0.000000e+00,    0.000000e+00
      18,    1.000000e+02,    0.000000e+00,    0.000000e+00
      19,    3.464102e+02,   -2.000000e+02,    0.000000e+00
      20,    1.125833e+02,   -6.500000e+01,    0.000000e+00
** ... 41 like lines cut
**
********************************** E L E M E N T S ****************************
*ELEMENT, TYPE=S4R, ELSET=EB1
       1,      50,      36,      19,      22
       2,      51,      35,      36,      50
       3,      51,      50,      22,      21
       4,      52,      34,      35,      51
       5,      52,      51,      21,      20
       6,      20,       2,      53,      52
       7,       2,       1,      54,      53
       8,       1,       4,      55,      54
       9,       4,       5,      56,      55
      10,       5,       6,      57,      56
      11,       6,       7,      58,      57
      12,       7,       8,      59,      58
      13,       8,       9,      60,      59
      14,       9,      10,      61,      60
      15,      10,       3,      24,      61
      16,      34,      52,      53,      33
      17,      24,      23,      27,      61
      18,      27,      28,      60,      61
      19,      28,      29,      59,      60
      20,      29,      30,      58,      59
** ... 4 like lines cut
*ELEMENT, TYPE=S4R, ELSET=EB2
      25,      41,      18,       1,       2
      26,      42,      17,      18,      41
      27,      42,      41,       2,      20
      28,      43,      16,      17,      42
      29,      43,      42,      20,      21
      30,      43,      21,      22,      44
      31,      22,      19,      45,      44
      32,      19,      37,      46,      45
      33,      37,      38,      47,      46
      34,      38,      39,      48,      47
      35,      39,      40,      49,      48
      36,      40,      25,      26,      49
      37,      11,      12,      49,      26
      38,      12,      13,      48,      49
      39,      13,      14,      47,      48
      40,      46,      47,      14,      15
      41,      16,      43,      44,      45
      42,      16,      45,      46,      15
**
********************************** S I D E S E T S **********************************
*ELSET, ELSET=SS1_E1
      17
*ELSET, ELSET=SS1_E2
      15,      36
*ELSET, ELSET=SS1_E4
      37
*SURFACE, NAME=SS1
SS1_E1, E1
SS1_E2, E2
SS1_E4, E4
*ELSET, ELSET=SS2_E1
       8,       9,      10,      11,      12,      13,      14,      15,      18,      19,
      20,      21,      22,      32,      33,      34,      35,      36,      37,      38,
      39
*ELSET, ELSET=SS2_E2
       1,       2,       4,      17,      25,      26,      28
*ELSET, ELSET=SS2_E3
      23,      40
*ELSET, ELSET=SS2_E4
      16,      42
*SURFACE, NAME=SS2
SS2_E1, E1
SS2_E2, E2
SS2_E3, E3
SS2_E4, E4
*ELSET, ELSET=SS7_E1
       7
*ELSET, ELSET=SS7_E3
      25
*SURFACE, NAME=SS7
SS7_E1, E1
SS7_E3, E3
*ELSET, ELSET=SS8_E1
       6,      31
*ELSET, ELSET=SS8_E2
      30
*ELSET, ELSET=SS8_E3
       1,       3,       5,      27,      29
*SURFACE, NAME=SS8
SS8_E1, E1
SS8_E2, E2
SS8_E3, E3
**
********************************** P R O P E R T I E S ************************
*SHELL SECTION, ELSET=EB1, SECTION INTEGRATION=SIMPSON, MATERIAL=Default-Steel
1.000000e+00
*SHELL SECTION, ELSET=EB2, SECTION INTEGRATION=SIMPSON, MATERIAL=Default-Steel
1.000000e+00
**
*END PART
**
**
**
********************************** E N D   P A R T S **********************************
**
**
********************************** A S S E M B L Y ************************************
**
*ASSEMBLY, NAME=ASSEMBLY1
**
*INSTANCE, NAME=Part-Default_1, PART=Part-Default
*END INSTANCE
**
*END ASSEMBLY
**
**
**
*MATERIAL, NAME = Default-Steel
*ELASTIC, TYPE=ISOTROPIC
2.068000e+05, 2.900000e-01
*DENSITY
7.000000e-06
*CONDUCTIVITY,TYPE=ISO
4.500000e-02
*SPECIFIC HEAT
5.000000e+02
**
**
************************************** H I S T O R Y *************************************
**
*PREPRINT
**
**************************************** S T E P 1 ***************************************
*STEP,INC=100,NAME=Default Set
**
*STATIC
1, 1, 1e-05, 1
**
**
**
**
*END STEP
