*HEADING
cubit(rittanyerickson/Desktop/test_mesh/BP9_2D__60degree_v5.inp): 05/29/2026: 21
version: 2024.8
**
********************************** P A R T S **********************************
*PART, NAME=Part-Default
**
********************************** N O D E S **********************************
*NODE, NSET=ALLNODES
       1,    0.000000e+00,    0.000000e+00,    0.000000e+00
       2,   -4.000000e+01,    0.000000e+00,    0.000000e+00
       3,   -1.333333e+01,    0.000000e+00,    0.000000e+00
       4,   -2.666667e+01,    0.000000e+00,    0.000000e+00
       5,    4.000000e+01,    0.000000e+00,    0.000000e+00
       6,    2.666667e+01,    0.000000e+00,    0.000000e+00
       7,    1.333333e+01,    0.000000e+00,    0.000000e+00
       8,    4.000000e+01,   -6.928000e+01,    0.000000e+00
       9,    2.000000e+01,   -3.464000e+01,    0.000000e+00
      10,    3.333333e+01,   -5.773333e+01,    0.000000e+00
      11,    2.666667e+01,   -4.618667e+01,    0.000000e+00
      12,    5.000000e+00,   -8.660000e+00,    0.000000e+00
      13,    1.000000e+01,   -1.732000e+01,    0.000000e+00
      14,    1.500000e+01,   -2.598000e+01,    0.000000e+00
      15,    8.000000e+01,   -6.928000e+01,    0.000000e+00
      16,    7.200000e+01,   -5.542400e+01,    0.000000e+00
      17,    6.400000e+01,   -4.156800e+01,    0.000000e+00
      18,    5.600000e+01,   -2.771200e+01,    0.000000e+00
      19,    4.800000e+01,   -1.385600e+01,    0.000000e+00
      20,    0.000000e+00,   -6.928000e+01,    0.000000e+00
** ... 23 like lines cut
**
********************************** E L E M E N T S ****************************
*ELEMENT, TYPE=S4R, ELSET=EB1
       1,       8,      10,      36,      28
       2,      10,      11,      42,      36
       3,      11,       9,      37,      42
       4,       9,      14,      38,      37
       5,      14,      13,      39,      38
       6,      13,      12,      40,      39
       7,      12,       1,       3,      40
       8,       3,       4,      41,      40
       9,       4,       2,      21,      41
      10,      20,      27,      43,      24
      11,      27,      28,      36,      43
      12,      21,      22,      40,      41
      13,      22,      23,      39,      40
      14,      39,      23,      37,      38
      15,      36,      42,      24,      43
      16,      42,      37,      23,      24
*ELEMENT, TYPE=S4R, ELSET=EB2
      17,       1,      12,      29,       7
      18,      12,      13,      35,      29
      19,      13,      14,      30,      35
      20,      14,       9,      31,      30
      21,       9,      11,      32,      31
      22,      11,      10,      33,      32
      23,      10,       8,      25,      33
      24,      25,      26,      34,      33
      25,      26,      15,      16,      34
      26,       5,       6,      35,      19
      27,       6,       7,      29,      35
      28,      16,      17,      33,      34
      29,      17,      18,      32,      33
      30,      32,      18,      30,      31
      31,      35,      30,      18,      19
**
********************************** S I D E S E T S **********************************
*ELSET, ELSET=SS1_E1
      12,      13,      28,      29
*ELSET, ELSET=SS1_E2
       9,      25
*ELSET, ELSET=SS1_E3
      16,      31
*ELSET, ELSET=SS1_E4
      10,      26
*SURFACE, NAME=SS1
SS1_E1, E1
SS1_E2, E2
SS1_E3, E3
SS1_E4, E4
*ELSET, ELSET=SS2_E1
       8,       9,      10,      11,      24,      25,      26,      27
*ELSET, ELSET=SS2_E2
       7,      23
*ELSET, ELSET=SS2_E4
       1,      17
*SURFACE, NAME=SS2
SS2_E1, E1
SS2_E2, E2
SS2_E4, E4
*ELSET, ELSET=SS7_E1
       4,       5,       6,       7,      17,      18,      19,      20
*SURFACE, NAME=SS7
SS7_E1, E1
*ELSET, ELSET=SS8_E1
       1,       2,       3,      21,      22,      23
*SURFACE, NAME=SS8
SS8_E1, E1
**
********************************** P R O P E R T I E S ************************
*SHELL SECTION, ELSET=EB1, SECTION INTEGRATION=SIMPSON, MATERIAL=Default-Steel
1.000000e+00
*SHELL SECTION, ELSET=EB2, SECTION INTEGRATION=SIMPSON, MATERIAL=Default-Steel
1.000000e+00
**
*END PART
**
**
**
********************************** E N D   P A R T S **********************************
**
**
********************************** A S S E M B L Y ************************************
**
*ASSEMBLY, NAME=ASSEMBLY1
**
*INSTANCE, NAME=Part-Default_1, PART=Part-Default
*END INSTANCE
**
*END ASSEMBLY
**
**
**
*MATERIAL, NAME = Default-Steel
*ELASTIC, TYPE=ISOTROPIC
2.068000e+05, 2.900000e-01
*DENSITY
7.000000e-06
*CONDUCTIVITY,TYPE=ISO
4.500000e-02
*SPECIFIC HEAT
5.000000e+02
**
**
************************************** H I S T O R Y *************************************
**
*PREPRINT
**
**************************************** S T E P 1 ***************************************
*STEP,INC=100,NAME=Default Set
**
*STATIC
1, 1, 1e-05, 1
**
**
**
**
*END STEP
