*HEADING
cubit(sers/brittanyerickson/Desktop/test_mesh/BP9_2D_90d_v2.inp): 05/11/2026: 21
version: 2024.8
**
********************************** P A R T S **********************************
*PART, NAME=Part-Default
**
********************************** N O D E S **********************************
*NODE, NSET=ALLNODES
       1,    0.000000e+00,    0.000000e+00,    0.000000e+00
       2,    0.000000e+00,   -4.000000e+01,    0.000000e+00
       3,    0.000000e+00,   -5.000000e+00,    0.000000e+00
       4,    0.000000e+00,   -1.000000e+01,    0.000000e+00
       5,    0.000000e+00,   -1.500000e+01,    0.000000e+00
       6,    0.000000e+00,   -2.000000e+01,    0.000000e+00
       7,    0.000000e+00,   -2.500000e+01,    0.000000e+00
       8,    0.000000e+00,   -3.000000e+01,    0.000000e+00
       9,    0.000000e+00,   -3.500000e+01,    0.000000e+00
      10,   -3.000000e+01,    0.000000e+00,    0.000000e+00
      11,   -5.000000e+00,    0.000000e+00,    0.000000e+00
      12,   -9.257484e+00,    0.000000e+00,    0.000000e+00
      13,   -1.312640e+01,    0.000000e+00,    0.000000e+00
      14,   -1.687342e+01,    0.000000e+00,    0.000000e+00
      15,   -2.074227e+01,    0.000000e+00,    0.000000e+00
      16,   -2.500000e+01,    0.000000e+00,    0.000000e+00
      17,    3.000000e+01,    0.000000e+00,    0.000000e+00
      18,    2.500000e+01,    0.000000e+00,    0.000000e+00
      19,    2.074227e+01,    0.000000e+00,    0.000000e+00
      20,    1.687342e+01,    0.000000e+00,    0.000000e+00
** ... 163 like lines cut
**
********************************** E L E M E N T S ****************************
*ELEMENT, TYPE=S4R, ELSET=EB1
       1,      24,      28,     123,      57
       2,      28,      27,     124,     123
       3,      27,      26,     125,     124
       4,      26,      25,     126,     125
       5,      25,       2,     127,     126
       6,       2,       9,     128,     127
       7,       9,       8,     129,     128
       8,       8,       7,     130,     129
       9,       7,       6,     131,     130
      10,       6,       5,     132,     131
      11,       5,       4,     133,     132
      12,       4,       3,     134,     133
      13,       3,       1,      11,     134
      14,      11,      12,     135,     134
      15,      12,      13,     136,     135
      16,      13,      14,     137,     136
      17,      14,      15,     138,     137
      18,      15,      16,     139,     138
      19,      16,      10,      30,     139
      20,      29,      53,     140,      40
** ... 59 like lines cut
*ELEMENT, TYPE=S4R, ELSET=EB2
      80,       1,       3,      63,      23
      81,       3,       4,      64,      63
      82,       4,       5,      65,      64
      83,       5,       6,      66,      65
      84,       6,       7,      67,      66
      85,       7,       8,      68,      67
      86,       8,       9,      69,      68
      87,       9,       2,      70,      69
      88,       2,      25,      71,      70
      89,      25,      26,      72,      71
      90,      26,      27,      73,      72
      91,      27,      28,      74,      73
      92,      28,      24,      58,      74
      93,      17,      18,      75,      52
      94,      18,      19,      76,      75
      95,      19,      20,      77,      76
      96,      20,      21,      78,      77
      97,      21,      22,      79,      78
      98,      22,      23,      63,      79
      99,      58,      59,      80,      74
** ... 58 like lines cut
**
********************************** S I D E S E T S **********************************
*ELSET, ELSET=SS1_E1
      25,      26,      27,      28,      29,      30,      31,      32,      33,      34,
     104,     105,     106,     107,     108,     109,     110,     111,     112,     113
*ELSET, ELSET=SS1_E2
      19,     103
*ELSET, ELSET=SS1_E4
      20,      93
*SURFACE, NAME=SS1
SS1_E1, E1
SS1_E2, E2
SS1_E4, E4
*ELSET, ELSET=SS2_E1
      14,      15,      16,      17,      18,      19,      20,      21,      22,      23,
      24,      93,      94,      95,      96,      97,      98,      99,     100,     101,
     102,     103
*ELSET, ELSET=SS2_E2
      13,      92
*ELSET, ELSET=SS2_E4
       1,      80
*SURFACE, NAME=SS2
SS2_E1, E1
SS2_E2, E2
SS2_E4, E4
*ELSET, ELSET=SS7_E1
       6,       7,       8,       9,      10,      11,      12,      13,      80,      81,
      82,      83,      84,      85,      86,      87
*SURFACE, NAME=SS7
SS7_E1, E1
*ELSET, ELSET=SS8_E1
       1,       2,       3,       4,       5,      88,      89,      90,      91,      92
*SURFACE, NAME=SS8
SS8_E1, E1
**
********************************** P R O P E R T I E S ************************
*SHELL SECTION, ELSET=EB1, SECTION INTEGRATION=SIMPSON, MATERIAL=Default-Steel
1.000000e+00
*SHELL SECTION, ELSET=EB2, SECTION INTEGRATION=SIMPSON, MATERIAL=Default-Steel
1.000000e+00
**
*END PART
**
**
**
********************************** E N D   P A R T S **********************************
**
**
********************************** A S S E M B L Y ************************************
**
*ASSEMBLY, NAME=ASSEMBLY1
**
*INSTANCE, NAME=Part-Default_1, PART=Part-Default
*END INSTANCE
**
*END ASSEMBLY
**
**
**
*MATERIAL, NAME = Default-Steel
*ELASTIC, TYPE=ISOTROPIC
2.068000e+05, 2.900000e-01
*DENSITY
7.000000e-06
*CONDUCTIVITY,TYPE=ISO
4.500000e-02
*SPECIFIC HEAT
5.000000e+02
**
**
************************************** H I S T O R Y *************************************
**
*PREPRINT
**
**************************************** S T E P 1 ***************************************
*STEP,INC=100,NAME=Default Set
**
*STATIC
1, 1, 1e-05, 1
**
**
**
**
*END STEP
