*HEADING
cubit(rittanyerickson/Desktop/test_mesh/BP9_2D__30degree_v1.inp): 05/20/2026: 15
version: 2024.8
**
********************************** P A R T S **********************************
*PART, NAME=Part-Default
**
********************************** N O D E S **********************************
*NODE, NSET=ALLNODES
       1,    0.000000e+00,    0.000000e+00,    0.000000e+00
       2,   -4.000000e+01,    0.000000e+00,    0.000000e+00
       3,   -2.000000e+00,    0.000000e+00,    0.000000e+00
       4,   -3.996761e+00,    0.000000e+00,    0.000000e+00
       5,   -6.080336e+00,    0.000000e+00,    0.000000e+00
       6,   -8.354419e+00,    0.000000e+00,    0.000000e+00
       7,   -1.095205e+01,    0.000000e+00,    0.000000e+00
       8,   -1.405779e+01,    0.000000e+00,    0.000000e+00
       9,   -1.794354e+01,    0.000000e+00,    0.000000e+00
      10,   -2.303045e+01,    0.000000e+00,    0.000000e+00
      11,   -3.000000e+01,    0.000000e+00,    0.000000e+00
      12,    4.000000e+01,    0.000000e+00,    0.000000e+00
      13,    3.000000e+01,    0.000000e+00,    0.000000e+00
      14,    2.303045e+01,    0.000000e+00,    0.000000e+00
      15,    1.794354e+01,    0.000000e+00,    0.000000e+00
      16,    1.405779e+01,    0.000000e+00,    0.000000e+00
      17,    1.095205e+01,    0.000000e+00,    0.000000e+00
      18,    8.354419e+00,    0.000000e+00,    0.000000e+00
      19,    6.080336e+00,    0.000000e+00,    0.000000e+00
      20,    3.996761e+00,    0.000000e+00,    0.000000e+00
** ... 181 like lines cut
**
********************************** E L E M E N T S ****************************
*ELEMENT, TYPE=S4R, ELSET=EB1
       1,     129,      73,      22,      24
       2,     130,      72,      73,     129
       3,     130,     129,      24,      25
       4,     131,      11,       2,      61
       5,     132,      10,      11,     131
       6,     132,     131,      61,      62
       7,      25,      26,     133,     130
       8,      26,      27,     134,     133
       9,      27,      28,     135,     134
      10,      28,      29,     168,     135
      11,      29,      30,     136,     168
      12,      30,      31,     137,     136
      13,      31,      32,     138,     137
      14,      32,      23,     139,     138
      15,      23,      51,     169,     139
      16,      51,      50,     140,     169
      17,      50,      49,     141,     140
      18,      49,      48,     142,     141
      19,      48,      47,     143,     142
      20,      47,      46,     144,     143
** ... 78 like lines cut
*ELEMENT, TYPE=S4R, ELSET=EB2
      99,      74,      70,      52,      53
     100,      75,      69,      70,      74
     101,      75,      74,      53,      54
     102,      76,      68,      69,      75
     103,      76,      75,      54,      55
     104,      77,      21,       1,      33
     105,      78,      20,      21,      77
     106,      78,      77,      33,      34
     107,      79,      19,      20,      78
     108,      79,      78,      34,      35
     109,      19,      79,      80,      18
     110,      79,      35,      36,      80
     111,      36,      37,     109,      80
     112,      37,      38,     108,     109
     113,      38,      39,      81,     108
     114,      39,      40,      82,      81
     115,      40,      41,      83,      82
     116,      41,      42,      84,      83
     117,      42,      43,      85,      84
     118,      43,      44,      86,      85
** ... 60 like lines cut
**
********************************** S I D E S E T S **********************************
*ELSET, ELSET=SS1_E1
      41,      42,      43,      44,      84,     138,     139,     140,     141,     170
*ELSET, ELSET=SS1_E3
       4,       6,      95,      99,     101,     103
*SURFACE, NAME=SS1
SS1_E1, E1
SS1_E3, E3
*ELSET, ELSET=SS2_E1
      35,      36,      37,      38,      39,      40,     137,     142,     143,     144,
     145
*ELSET, ELSET=SS2_E2
       1,       2,       4,       5,      69,      70,      99,     100,     102,     104,
     105,     107,     146
*ELSET, ELSET=SS2_E3
      76
*ELSET, ELSET=SS2_E4
      98,     109,     158
*SURFACE, NAME=SS2
SS2_E1, E1
SS2_E2, E2
SS2_E3, E3
SS2_E4, E4
*ELSET, ELSET=SS7_E1
      15,      16,      17,      18,      19,      20,      21,      22,      23,      24,
      25,      26,      27,      28,      29,      30,      31,      32,      33,      34,
     111,     112,     113,     114,     115,     116,     117,     118,     119,     120,
     121,     122,     123,     124,     125,     126
*ELSET, ELSET=SS7_E2
     110
*ELSET, ELSET=SS7_E3
     104,     106,     108
*SURFACE, NAME=SS7
SS7_E1, E1
SS7_E2, E2
SS7_E3, E3
*ELSET, ELSET=SS8_E1
       7,       8,       9,      10,      11,      12,      13,      14,     127,     128,
     129,     130,     131,     132,     133,     134,     135,     136
*ELSET, ELSET=SS8_E3
       1,       3
*SURFACE, NAME=SS8
SS8_E1, E1
SS8_E3, E3
**
********************************** P R O P E R T I E S ************************
*SHELL SECTION, ELSET=EB1, SECTION INTEGRATION=SIMPSON, MATERIAL=Default-Steel
1.000000e+00
*SHELL SECTION, ELSET=EB2, SECTION INTEGRATION=SIMPSON, MATERIAL=Default-Steel
1.000000e+00
**
*END PART
**
**
**
********************************** E N D   P A R T S **********************************
**
**
********************************** A S S E M B L Y ************************************
**
*ASSEMBLY, NAME=ASSEMBLY1
**
*INSTANCE, NAME=Part-Default_1, PART=Part-Default
*END INSTANCE
**
*END ASSEMBLY
**
**
**
*MATERIAL, NAME = Default-Steel
*ELASTIC, TYPE=ISOTROPIC
2.068000e+05, 2.900000e-01
*DENSITY
7.000000e-06
*CONDUCTIVITY,TYPE=ISO
4.500000e-02
*SPECIFIC HEAT
5.000000e+02
**
**
************************************** H I S T O R Y *************************************
**
*PREPRINT
**
**************************************** S T E P 1 ***************************************
*STEP,INC=100,NAME=Default Set
**
*STATIC
1, 1, 1e-05, 1
**
**
**
**
*END STEP
