*HEADING
cubit(sers/brittanyerickson/Desktop/test_mesh/BP9_2D_30d_v1.inp): 03/12/2026: 13
version: 2024.8
**
********************************** P A R T S **********************************
*PART, NAME=Part-Default
**
********************************** N O D E S **********************************
*NODE, NSET=ALLNODES
       1,    0.000000e+00,    0.000000e+00,    0.000000e+00
       2,    3.464102e+01,   -2.000000e+01,    0.000000e+00
       3,    2.664694e+00,   -1.538462e+00,    0.000000e+00
       4,    5.329387e+00,   -3.076923e+00,    0.000000e+00
       5,    7.994081e+00,   -4.615385e+00,    0.000000e+00
       6,    1.065877e+01,   -6.153846e+00,    0.000000e+00
       7,    1.332347e+01,   -7.692308e+00,    0.000000e+00
       8,    1.598816e+01,   -9.230769e+00,    0.000000e+00
       9,    1.865285e+01,   -1.076923e+01,    0.000000e+00
      10,    2.131755e+01,   -1.230769e+01,    0.000000e+00
      11,    2.398224e+01,   -1.384615e+01,    0.000000e+00
      12,    2.664694e+01,   -1.538462e+01,    0.000000e+00
      13,    2.931163e+01,   -1.692308e+01,    0.000000e+00
      14,    3.197632e+01,   -1.846154e+01,    0.000000e+00
      15,   -8.000000e+02,    0.000000e+00,    0.000000e+00
      16,   -3.000000e+00,    0.000000e+00,    0.000000e+00
      17,   -7.910516e+00,    0.000000e+00,    0.000000e+00
      18,   -1.561349e+01,    0.000000e+00,    0.000000e+00
      19,   -2.719889e+01,    0.000000e+00,    0.000000e+00
      20,   -4.391245e+01,    0.000000e+00,    0.000000e+00
** ... 272 like lines cut
**
********************************** E L E M E N T S ****************************
*ELEMENT, TYPE=S4R, ELSET=EB1
       1,     155,      98,      53,      60
       2,     156,      97,      98,     155
       3,     156,     155,      60,      59
       4,       8,       7,     158,     157
       5,       7,       6,     159,     158
       6,       6,       5,     160,     159
       7,       5,       4,     161,     160
       8,      17,      18,     163,     183
       9,      18,      19,     164,     163
      10,      19,      20,     165,     164
      11,      20,      21,     166,     165
      12,      21,      22,     167,     166
      13,      22,      23,     168,     167
      14,      23,      24,     169,     168
      15,      24,      25,     170,     169
      16,      25,      26,     171,     170
      17,      26,      27,     172,     171
      18,      27,      28,     173,     172
      19,      28,      29,     174,     173
      20,      29,      30,     175,     174
** ... 154 like lines cut
*ELEMENT, TYPE=S4R, ELSET=EB2
     175,       5,      51,      52,       4
     176,       8,       9,      49,      50
     177,       9,      10,     109,      49
     178,       2,      54,      48,     110
     179,      54,      55,      47,      48
     180,      55,      56,      46,      47
     181,      48,      49,     109,     110
     182,      34,      35,     111,      70
     183,      35,      36,     112,     111
     184,      36,      37,     113,     112
     185,      37,      38,     114,     113
     186,      38,      39,     147,     114
     187,      39,      40,     115,     147
     188,      40,      41,     116,     115
     189,      41,      42,     117,     116
     190,      42,      43,     118,     117
     191,      43,      44,     137,     118
     192,      44,      45,     119,     137
     193,      45,      46,      56,     119
     194,      66,      67,     120,     108
** ... 53 like lines cut
**
********************************** S I D E S E T S **********************************
*ELSET, ELSET=SS1_E1
      93,      94,     194,     195,     196,     197
*ELSET, ELSET=SS1_E2
      24,      43
*ELSET, ELSET=SS1_E4
      68,     182
*SURFACE, NAME=SS1
SS1_E1, E1
SS1_E2, E2
SS1_E4, E4
*ELSET, ELSET=SS2_E1
       8,       9,      10,      11,      12,      13,      14,      15,      16,      17,
      18,      19,      20,      21,      22,      23,      24,      68,      69,      70,
      71,      72,      73,      74,      75,      76,      77,      78,      79,      80,
      81,      82,      83,      84,      85,      86,      87,      88,      89,      90,
      91,      92,     157,     158,     181,     182,     183,     184,     185,     186,
     187,     188,     189,     190,     191,     192,     193,     203,     204,     205,
     206,     207,     208,     209,     210,     211,     212,     244
*ELSET, ELSET=SS2_E2
       1,       2,     175
*ELSET, ELSET=SS2_E3
     176,     179,     180,     247
*ELSET, ELSET=SS2_E4
      65,      66,     194
*SURFACE, NAME=SS2
SS2_E1, E1
SS2_E2, E2
SS2_E3, E3
SS2_E4, E4
*ELSET, ELSET=SS7_E1
       4,       5,       6,       7,     152,     153,     176,     177,     240,     241,
     246,     247
*ELSET, ELSET=SS7_E2
     236,     245
*ELSET, ELSET=SS7_E3
      49
*ELSET, ELSET=SS7_E4
      25,      28,     150,     151,     155,     156,     175,     238,     239,     243,
     247
*SURFACE, NAME=SS7
SS7_E1, E1
SS7_E2, E2
SS7_E3, E3
SS7_E4, E4
*ELSET, ELSET=SS8_E1
      67,     130,     131,     178,     179,     180,     198,     199,     200,     201,
     202
*ELSET, ELSET=SS8_E3
       1,       3
*ELSET, ELSET=SS8_E4
      55,      56,     174
*SURFACE, NAME=SS8
SS8_E1, E1
SS8_E3, E3
SS8_E4, E4
**
********************************** P R O P E R T I E S ************************
*SHELL SECTION, ELSET=EB1, SECTION INTEGRATION=SIMPSON, MATERIAL=Default-Steel
1.000000e+00
*SHELL SECTION, ELSET=EB2, SECTION INTEGRATION=SIMPSON, MATERIAL=Default-Steel
1.000000e+00
**
*END PART
**
**
**
********************************** E N D   P A R T S **********************************
**
**
********************************** A S S E M B L Y ************************************
**
*ASSEMBLY, NAME=ASSEMBLY1
**
*INSTANCE, NAME=Part-Default_1, PART=Part-Default
*END INSTANCE
**
*END ASSEMBLY
**
**
**
*MATERIAL, NAME = Default-Steel
*ELASTIC, TYPE=ISOTROPIC
2.068000e+05, 2.900000e-01
*DENSITY
7.000000e-06
*CONDUCTIVITY,TYPE=ISO
4.500000e-02
*SPECIFIC HEAT
5.000000e+02
**
**
************************************** H I S T O R Y *************************************
**
*PREPRINT
**
**************************************** S T E P 1 ***************************************
*STEP,INC=100,NAME=Default Set
**
*STATIC
1, 1, 1e-05, 1
**
**
**
**
*END STEP
