*HEADING
cubit(sers/brittanyerickson/Desktop/test_mesh/BP9_2D_90d_v1.inp): 03/17/2026: 16
version: 2024.8
**
********************************** P A R T S **********************************
*PART, NAME=Part-Default
**
********************************** N O D E S **********************************
*NODE, NSET=ALLNODES
       1,    0.000000e+00,    0.000000e+00,    0.000000e+00
       2,    0.000000e+00,   -4.000000e+01,    0.000000e+00
       3,    0.000000e+00,   -3.076923e+00,    0.000000e+00
       4,    0.000000e+00,   -6.153846e+00,    0.000000e+00
       5,    0.000000e+00,   -9.230769e+00,    0.000000e+00
       6,    0.000000e+00,   -1.230769e+01,    0.000000e+00
       7,    0.000000e+00,   -1.538462e+01,    0.000000e+00
       8,    0.000000e+00,   -1.846154e+01,    0.000000e+00
       9,    0.000000e+00,   -2.153846e+01,    0.000000e+00
      10,    0.000000e+00,   -2.461538e+01,    0.000000e+00
      11,    0.000000e+00,   -2.769231e+01,    0.000000e+00
      12,    0.000000e+00,   -3.076923e+01,    0.000000e+00
      13,    0.000000e+00,   -3.384615e+01,    0.000000e+00
      14,    0.000000e+00,   -3.692308e+01,    0.000000e+00
      15,   -8.000000e+02,    0.000000e+00,    0.000000e+00
      16,   -3.000000e+00,    0.000000e+00,    0.000000e+00
      17,   -7.420278e+00,    0.000000e+00,    0.000000e+00
      18,   -1.376225e+01,    0.000000e+00,    0.000000e+00
      19,   -2.262378e+01,    0.000000e+00,    0.000000e+00
      20,   -3.468432e+01,    0.000000e+00,    0.000000e+00
** ... 248 like lines cut
**
********************************** E L E M E N T S ****************************
*ELEMENT, TYPE=S4R, ELSET=EB1
       1,       6,       5,     188,     187
       2,       3,       1,      16,     189
       3,       6,     187,     190,       7
       4,     187,     192,     191,     190
       5,       7,     190,     193,       8
       6,     190,     191,     194,     193
       7,     191,     196,     195,     194
       8,       8,     193,     197,       9
       9,       9,     197,     200,      10
      10,      12,     202,     263,      13
      11,      57,      60,     265,      83
      12,      60,      59,     267,     265
      13,     205,     207,     206,     254
      14,      82,      83,     208,     209
      15,     209,     208,     207,     205
      16,     195,     196,     239,     259
      17,      59,      58,     198,     267
      18,      58,       2,     199,     198
      19,       2,      14,     210,     199
      20,      13,     263,     210,      14
** ... 90 like lines cut
*ELEMENT, TYPE=S4R, ELSET=EB2
     111,       6,       7,     100,      99
     112,       7,       8,     101,     100
     113,       8,       9,     102,     101
     114,       9,      10,     103,     102
     115,      10,      11,     104,     103
     116,      11,      12,     105,     104
     117,      12,      13,     106,     105
     118,      13,      14,     107,     106
     119,      14,       2,     108,     107
     120,       2,      58,     109,     108
     121,      58,      59,     110,     109
     122,      59,      60,     111,     110
     123,      60,      57,      84,     111
     124,       1,       3,     185,      56
     125,       3,       4,     113,     185
     126,     102,     103,     115,     114
     127,     103,     104,     116,     115
     128,     104,     105,     117,     116
     129,     106,     107,     117,     105
     130,      54,     112,     118,      53
** ... 96 like lines cut
**
********************************** S I D E S E T S **********************************
*ELSET, ELSET=SS1_E1
      49,      50,     170,     171
*ELSET, ELSET=SS1_E2
      34,     169
*ELSET, ELSET=SS1_E4
      35,     140
*SURFACE, NAME=SS1
SS1_E1, E1
SS1_E2, E2
SS1_E4, E4
*ELSET, ELSET=SS2_E1
      14,      21,      22,      23,      24,      25,      26,      27,      28,      29,
      30,      31,      32,      33,      34,      35,      36,      37,      38,      39,
      40,      41,      42,      43,      44,      45,      46,      47,      48,     140,
     141,     142,     143,     144,     145,     146,     147,     148,     149,     150,
     151,     152,     153,     154,     155,     156,     157,     158,     159,     160,
     161,     162,     163,     164,     165,     166,     167,     168,     169
*ELSET, ELSET=SS2_E2
       2,     123,     135,     219,     221
*ELSET, ELSET=SS2_E3
      94,     101,     102
*ELSET, ELSET=SS2_E4
      11,      51,     103,     105,     124,     130,     136
*SURFACE, NAME=SS2
SS2_E1, E1
SS2_E2, E2
SS2_E3, E3
SS2_E4, E4
*ELSET, ELSET=SS7_E1
       1,       2,      19,     111,     112,     113,     114,     115,     116,     117,
     118,     119,     124,     125
*ELSET, ELSET=SS7_E2
      81,      82,     106,     107,     217,     218
*ELSET, ELSET=SS7_E4
       3,       5,       8,       9,      10,      20
*SURFACE, NAME=SS7
SS7_E1, E1
SS7_E2, E2
SS7_E4, E4
*ELSET, ELSET=SS8_E1
      11,      12,      17,      18,     120,     121,     122,     123
*SURFACE, NAME=SS8
SS8_E1, E1
**
********************************** P R O P E R T I E S ************************
*SHELL SECTION, ELSET=EB1, SECTION INTEGRATION=SIMPSON, MATERIAL=Default-Steel
1.000000e+00
*SHELL SECTION, ELSET=EB2, SECTION INTEGRATION=SIMPSON, MATERIAL=Default-Steel
1.000000e+00
**
*END PART
**
**
**
********************************** E N D   P A R T S **********************************
**
**
********************************** A S S E M B L Y ************************************
**
*ASSEMBLY, NAME=ASSEMBLY1
**
*INSTANCE, NAME=Part-Default_1, PART=Part-Default
*END INSTANCE
**
*END ASSEMBLY
**
**
**
*MATERIAL, NAME = Default-Steel
*ELASTIC, TYPE=ISOTROPIC
2.068000e+05, 2.900000e-01
*DENSITY
7.000000e-06
*CONDUCTIVITY,TYPE=ISO
4.500000e-02
*SPECIFIC HEAT
5.000000e+02
**
**
************************************** H I S T O R Y *************************************
**
*PREPRINT
**
**************************************** S T E P 1 ***************************************
*STEP,INC=100,NAME=Default Set
**
*STATIC
1, 1, 1e-05, 1
**
**
**
**
*END STEP
