*HEADING
cubit(brittanyerickson/Desktop/test_mesh/BP9_2D__60degree_v2inp): 05/29/2026: 15
version: 2024.8
**
********************************** P A R T S **********************************
*PART, NAME=Part-Default
**
********************************** N O D E S **********************************
*NODE, NSET=ALLNODES
       1,    0.000000e+00,    0.000000e+00,    0.000000e+00
       2,   -4.000000e+01,    0.000000e+00,    0.000000e+00
       3,   -1.000000e+01,    0.000000e+00,    0.000000e+00
       4,   -1.475538e+01,    0.000000e+00,    0.000000e+00
       5,   -1.768827e+01,    0.000000e+00,    0.000000e+00
       6,   -1.999967e+01,    0.000000e+00,    0.000000e+00
       7,   -2.231131e+01,    0.000000e+00,    0.000000e+00
       8,   -2.524467e+01,    0.000000e+00,    0.000000e+00
       9,   -3.000000e+01,    0.000000e+00,    0.000000e+00
      10,    4.000000e+01,    0.000000e+00,    0.000000e+00
      11,    3.000000e+01,    0.000000e+00,    0.000000e+00
      12,    2.524467e+01,    0.000000e+00,    0.000000e+00
      13,    2.231131e+01,    0.000000e+00,    0.000000e+00
      14,    1.999967e+01,    0.000000e+00,    0.000000e+00
      15,    1.768827e+01,    0.000000e+00,    0.000000e+00
      16,    1.475538e+01,    0.000000e+00,    0.000000e+00
      17,    1.000000e+01,    0.000000e+00,    0.000000e+00
      18,    4.000000e+01,   -6.928000e+01,    0.000000e+00
      19,    2.000000e+01,   -3.464000e+01,    0.000000e+00
      20,    3.499989e+01,   -6.061981e+01,    0.000000e+00
** ... 99 like lines cut
**
********************************** E L E M E N T S ****************************
*ELEMENT, TYPE=S4R, ELSET=EB1
       1,      18,      20,      85,      51
       2,      20,      21,      86,      85
       3,      21,      22,      87,      86
       4,      24,      25,      88,     114
       5,      25,      26,      89,      88
       6,      26,      19,      90,      89
       7,      19,      29,      91,      90
       8,      29,      28,      92,      91
       9,      28,      27,      93,      92
      10,      27,       1,       3,      93
      11,       3,       4,      94,      93
      12,       4,       5,      95,      94
      13,       5,       6,      96,      95
      14,       6,       7,      97,      96
      15,       7,       8,      98,      97
      16,       8,       9,      99,      98
      17,       9,       2,      39,      99
      18,      39,      40,     100,      99
      19,      40,      41,     101,     100
      20,      41,      42,     102,     101
** ... 30 like lines cut
*ELEMENT, TYPE=S4R, ELSET=EB2
      51,       1,      27,      52,      17
      52,      27,      28,      53,      52
      53,      28,      29,      54,      53
      54,      29,      19,      55,      54
      55,      19,      26,      56,      55
      56,      26,      25,      57,      56
      57,      25,      24,      58,      57
      58,      24,      23,      59,      58
      59,      23,      22,      60,      59
      60,      22,      21,      61,      60
      61,      21,      20,      62,      61
      62,      10,      11,      63,      37
      63,      11,      12,      70,      63
      64,      12,      13,      69,      70
      65,      30,      31,      64,      48
      66,      31,      32,      68,      64
      67,      33,      34,      65,      74
      68,      34,      35,      66,      65
      69,      35,      36,      67,      66
      70,      36,      37,      63,      67
** ... 28 like lines cut
**
********************************** S I D E S E T S **********************************
*ELSET, ELSET=SS1_E1
      18,      19,      20,      21,      65,      66,      67,      68,      69,      70
*ELSET, ELSET=SS1_E2
      17
*ELSET, ELSET=SS1_E4
      45,      46,      48,      62,      88
*SURFACE, NAME=SS1
SS1_E1, E1
SS1_E2, E2
SS1_E4, E4
*ELSET, ELSET=SS2_E1
      11,      12,      13,      14,      15,      16,      17,      22,      23,      62,
      63,      64,      71,      91,      92
*ELSET, ELSET=SS2_E2
      10,      21,      84,      85
*ELSET, ELSET=SS2_E4
       1,      51,      65,      89,      90
*SURFACE, NAME=SS2
SS2_E1, E1
SS2_E2, E2
SS2_E4, E4
*ELSET, ELSET=SS7_E1
       7,       8,       9,      10,      51,      52,      53,      54
*SURFACE, NAME=SS7
SS7_E1, E1
*ELSET, ELSET=SS8_E1
       1,       2,       3,       4,       5,       6,      50,      55,      56,      57,
      58,      59,      60,      61
*ELSET, ELSET=SS8_E2
      49,      83
*SURFACE, NAME=SS8
SS8_E1, E1
SS8_E2, E2
**
********************************** P R O P E R T I E S ************************
*SHELL SECTION, ELSET=EB1, SECTION INTEGRATION=SIMPSON, MATERIAL=Default-Steel
1.000000e+00
*SHELL SECTION, ELSET=EB2, SECTION INTEGRATION=SIMPSON, MATERIAL=Default-Steel
1.000000e+00
**
*END PART
**
**
**
********************************** E N D   P A R T S **********************************
**
**
********************************** A S S E M B L Y ************************************
**
*ASSEMBLY, NAME=ASSEMBLY1
**
*INSTANCE, NAME=Part-Default_1, PART=Part-Default
*END INSTANCE
**
*END ASSEMBLY
**
**
**
*MATERIAL, NAME = Default-Steel
*ELASTIC, TYPE=ISOTROPIC
2.068000e+05, 2.900000e-01
*DENSITY
7.000000e-06
*CONDUCTIVITY,TYPE=ISO
4.500000e-02
*SPECIFIC HEAT
5.000000e+02
**
**
************************************** H I S T O R Y *************************************
**
*PREPRINT
**
**************************************** S T E P 1 ***************************************
*STEP,INC=100,NAME=Default Set
**
*STATIC
1, 1, 1e-05, 1
**
**
**
**
*END STEP
