*HEADING
cubit(/Users/brittanyerickson/Desktop/test_mesh/BP9_v1.inp): 02/24/2026: 13:45:1
version: 2024.8
**
********************************** P A R T S **********************************
*PART, NAME=Part-Default
**
********************************** N O D E S **********************************
*NODE, NSET=ALLNODES
       1,    2.000000e+02,    0.000000e+00,   -8.000000e+01
       2,   -2.000000e+02,    0.000000e+00,   -8.000000e+01
       3,    2.000000e+02,    0.000000e+00,    0.000000e+00
       4,   -2.000000e+02,    0.000000e+00,    0.000000e+00
       5,    2.000000e+02,    2.000000e+02,    0.000000e+00
       6,   -2.000000e+02,    2.000000e+02,    0.000000e+00
       7,    2.000000e+02,    2.000000e+02,   -8.000000e+01
       8,   -2.000000e+02,    2.000000e+02,   -8.000000e+01
       9,   -2.000000e+02,   -2.000000e+02,   -8.000000e+01
      10,   -2.000000e+02,   -2.000000e+02,    0.000000e+00
      11,    2.000000e+02,   -2.000000e+02,   -8.000000e+01
      12,    2.000000e+02,   -2.000000e+02,    0.000000e+00
**
********************************** E L E M E N T S ****************************
*ELEMENT, TYPE=C3D8R, ELSET=EB8
       1,       3,      12,      10,       4,       1,      11,       9,       2
*ELEMENT, TYPE=C3D8R, ELSET=EB6
       2,       7,       5,       6,       8,       1,       3,       4,       2
**
********************************** S I D E S E T S **********************************
*ELSET, ELSET=SS2_S1
       1
*ELSET, ELSET=SS2_S2
       1
*ELSET, ELSET=SS2_S4
       2
*ELSET, ELSET=SS2_S6
       2
*SURFACE, NAME=SS2
SS2_S1, S1
SS2_S2, S2
SS2_S4, S4
SS2_S6, S6
*ELSET, ELSET=SS7_S2
       2
*ELSET, ELSET=SS7_S6
       1
*SURFACE, NAME=SS7
SS7_S2, S2
SS7_S6, S6
*ELSET, ELSET=SS8_S1
       2
*ELSET, ELSET=SS8_S3
       1,       2
*ELSET, ELSET=SS8_S4
       1
*ELSET, ELSET=SS8_S5
       1,       2
*SURFACE, NAME=SS8
SS8_S1, S1
SS8_S3, S3
SS8_S4, S4
SS8_S5, S5
**
********************************** P R O P E R T I E S ************************
*SOLID SECTION, ELSET=EB8, MATERIAL=Default-Steel
*SOLID SECTION, ELSET=EB6, MATERIAL=Default-Steel
**
*END PART
**
**
**
********************************** E N D   P A R T S **********************************
**
**
********************************** A S S E M B L Y ************************************
**
*ASSEMBLY, NAME=ASSEMBLY1
**
*INSTANCE, NAME=Part-Default_1, PART=Part-Default
*END INSTANCE
**
*END ASSEMBLY
**
**
**
*MATERIAL, NAME = Default-Steel
*ELASTIC, TYPE=ISOTROPIC
2.068000e+05, 2.900000e-01
*DENSITY
7.000000e-06
*CONDUCTIVITY,TYPE=ISO
4.500000e-02
*SPECIFIC HEAT
5.000000e+02
**
**
************************************** H I S T O R Y *************************************
**
*PREPRINT
**
**************************************** S T E P 1 ***************************************
*STEP,INC=100,NAME=Default Set
**
*STATIC
1, 1, 1e-05, 1
**
**
**
**
*END STEP
