*HEADING
cubit(ittanyerickson/Desktop/test_mesh/BP1_160_160_variable.inp): 02/04/2026: 10
version: 2024.8
**
********************************** P A R T S **********************************
*PART, NAME=Part-Default
**
********************************** N O D E S **********************************
*NODE, NSET=ALLNODES
       1,    0.000000e+00,    0.000000e+00,    0.000000e+00
       2,    0.000000e+00,   -2.000000e+01,    0.000000e+00
       3,    0.000000e+00,   -1.000000e+00,    0.000000e+00
       4,    0.000000e+00,   -2.000000e+00,    0.000000e+00
       5,    0.000000e+00,   -3.000000e+00,    0.000000e+00
       6,    0.000000e+00,   -4.000000e+00,    0.000000e+00
       7,    0.000000e+00,   -5.000000e+00,    0.000000e+00
       8,    0.000000e+00,   -6.000000e+00,    0.000000e+00
       9,    0.000000e+00,   -7.000000e+00,    0.000000e+00
      10,    0.000000e+00,   -8.000000e+00,    0.000000e+00
      11,    0.000000e+00,   -9.000000e+00,    0.000000e+00
      12,    0.000000e+00,   -1.000000e+01,    0.000000e+00
      13,    0.000000e+00,   -1.100000e+01,    0.000000e+00
      14,    0.000000e+00,   -1.200000e+01,    0.000000e+00
      15,    0.000000e+00,   -1.300000e+01,    0.000000e+00
      16,    0.000000e+00,   -1.400000e+01,    0.000000e+00
      17,    0.000000e+00,   -1.500000e+01,    0.000000e+00
      18,    0.000000e+00,   -1.600000e+01,    0.000000e+00
      19,    0.000000e+00,   -1.700000e+01,    0.000000e+00
      20,    0.000000e+00,   -1.800000e+01,    0.000000e+00
** ... 600 like lines cut
**
********************************** E L E M E N T S ****************************
*ELEMENT, TYPE=S4R, ELSET=EB1
       1,       1,      36,     333,       3
       2,      36,      37,     334,     333
       3,      37,      38,     335,     334
       4,      38,      39,     336,     335
       5,      39,      40,     337,     336
       6,      40,      41,     338,     337
       7,      41,      42,     339,     338
       8,      42,      43,     340,     339
       9,      43,      44,     341,     340
      10,      44,      45,     342,     341
      11,      45,      46,     343,     342
      12,      46,      47,     344,     343
      13,      47,      48,     345,     344
      14,      48,      49,     346,     345
      15,      49,      50,     347,     346
      16,      50,      51,     348,     347
      17,      51,      52,     349,     348
      18,      52,      53,     350,     349
      19,      53,      54,     351,     350
      20,      54,      35,     352,     351
** ... 562 like lines cut
**
********************************** S I D E S E T S **********************************
*ELSET, ELSET=SS1_E1
     547
*ELSET, ELSET=SS1_E2
      29,     114,     146,     568
*ELSET, ELSET=SS1_E3
     567,     579
*ELSET, ELSET=SS1_E4
     317
*SURFACE, NAME=SS1
SS1_E1, E1
SS1_E2, E2
SS1_E3, E3
SS1_E4, E4
*ELSET, ELSET=SS2_E1
       1,       2,       3,       4,       5,       6,       7,       8,       9,      10,
      11,      12,      13,      14,      15,      16,      17,      18,      19,      20,
      21,      22,      23,      24,      25,      26,      27,      28,      29,     185,
     320,     433,     435,     436,     437,     438,     439,     440,     535,     553,
     565
*ELSET, ELSET=SS2_E2
     506,     534
*ELSET, ELSET=SS2_E3
     351,     532,     549,     568,     577
*ELSET, ELSET=SS2_E4
     299,     318,     352,     374,     389,     399,     400,     401,     407,     415,
     416,     417,     425,     432,     434,     451,     547,     571
*SURFACE, NAME=SS2
SS2_E1, E1
SS2_E2, E2
SS2_E3, E3
SS2_E4, E4
*ELSET, ELSET=SS7_E1
     149,     150,     151,     152,     153,     154,     155,     156,     157,     158,
     159,     160,     161,     162,     163,     164,     295,     296,     315,     323,
     324,     325,     326,     327,     328,     329,     330,     331,     332,     333,
     334,     335,     336,     337,     338,     339,     340,     341,     342,     343,
     344,     345,     346,     347,     348,     349,     350
*ELSET, ELSET=SS7_E3
     281,     282,     574
*ELSET, ELSET=SS7_E4
       1,      30,      54,      63,      87,      88,     116,     293,     294,     351
*SURFACE, NAME=SS7
SS7_E1, E1
SS7_E3, E3
SS7_E4, E4
*ELSET, ELSET=SS8_E1
     314,     322,     573
*ELSET, ELSET=SS8_E2
     320,     551
*ELSET, ELSET=SS8_E3
     554
*SURFACE, NAME=SS8
SS8_E1, E1
SS8_E2, E2
SS8_E3, E3
**
********************************** P R O P E R T I E S ************************
*SHELL SECTION, ELSET=EB1, SECTION INTEGRATION=SIMPSON, MATERIAL=Default-Steel
1.000000e+00
**
*END PART
**
**
**
********************************** E N D   P A R T S **********************************
**
**
********************************** A S S E M B L Y ************************************
**
*ASSEMBLY, NAME=ASSEMBLY1
**
*INSTANCE, NAME=Part-Default_1, PART=Part-Default
*END INSTANCE
**
*END ASSEMBLY
**
**
**
*MATERIAL, NAME = Default-Steel
*ELASTIC, TYPE=ISOTROPIC
2.068000e+05, 2.900000e-01
*DENSITY
7.000000e-06
*CONDUCTIVITY,TYPE=ISO
4.500000e-02
*SPECIFIC HEAT
5.000000e+02
**
**
************************************** H I S T O R Y *************************************
**
*PREPRINT
**
**************************************** S T E P 1 ***************************************
*STEP,INC=100,NAME=Default Set
**
*STATIC
1, 1, 1e-05, 1
**
**
**
**
*END STEP
