*HEADING
cubit(/Users/brittanyerickson/Desktop/test_mesh/BP1_v1.inp.inp): 02/05/2026: 10:
version: 2024.8
**
********************************** P A R T S **********************************
*PART, NAME=Part-Default
**
********************************** N O D E S **********************************
*NODE, NSET=ALLNODES
       1,    0.000000e+00,    0.000000e+00,    0.000000e+00
       2,    0.000000e+00,   -4.000000e+01,    0.000000e+00
       3,    0.000000e+00,   -4.000000e+00,    0.000000e+00
       4,    0.000000e+00,   -8.000000e+00,    0.000000e+00
       5,    0.000000e+00,   -1.200000e+01,    0.000000e+00
       6,    0.000000e+00,   -1.600000e+01,    0.000000e+00
       7,    0.000000e+00,   -2.000000e+01,    0.000000e+00
       8,    0.000000e+00,   -2.400000e+01,    0.000000e+00
       9,    0.000000e+00,   -2.800000e+01,    0.000000e+00
      10,    0.000000e+00,   -3.200000e+01,    0.000000e+00
      11,    0.000000e+00,   -3.600000e+01,    0.000000e+00
      12,   -1.600000e+02,    0.000000e+00,    0.000000e+00
      13,   -4.000000e+00,    0.000000e+00,    0.000000e+00
      14,   -1.004798e+01,    0.000000e+00,    0.000000e+00
      15,   -1.871674e+01,    0.000000e+00,    0.000000e+00
      16,   -3.050247e+01,    0.000000e+00,    0.000000e+00
      17,   -4.570828e+01,    0.000000e+00,    0.000000e+00
      18,   -6.433195e+01,    0.000000e+00,    0.000000e+00
      19,   -8.599006e+01,    0.000000e+00,    0.000000e+00
      20,   -1.099095e+02,    0.000000e+00,    0.000000e+00
** ... 161 like lines cut
**
********************************** E L E M E N T S ****************************
*ELEMENT, TYPE=S4R, ELSET=EB1
       1,       6,       5,     123,     122
       2,       5,       4,     124,     123
       3,       6,     122,     125,       7
       4,     122,     127,     179,     125
       5,     122,     123,     128,     127
       6,     123,     124,     129,     128
       7,     128,     129,     133,     132
       8,     129,      15,      16,     133
       9,     131,     137,     136,     135
      10,     131,     132,     138,     137
      11,     132,     133,     139,     138
      12,     133,      16,      17,     139
      13,       2,     134,     140,      33
      14,      32,      39,     141,      56
      15,      39,      38,     142,     141
      16,      38,      37,     143,     142
      17,      37,      36,     144,     143
      18,      36,      35,     145,     144
      19,      35,      34,     146,     145
      20,      34,      33,     140,     146
** ... 138 like lines cut
**
********************************** S I D E S E T S **********************************
*ELSET, ELSET=SS1_E1
      31,      32,      33,      34,     115,     116,     117,     118
*ELSET, ELSET=SS1_E2
      25,     114
*ELSET, ELSET=SS1_E4
      26,     104
*SURFACE, NAME=SS1
SS1_E1, E1
SS1_E2, E2
SS1_E4, E4
*ELSET, ELSET=SS2_E1
      21,      22,      23,      24,      25,      26,      27,      28,      29,      30,
      63,      74,     104,     105,     106,     107,     108,     109,     110,     111,
     112,     113,     114,     157
*ELSET, ELSET=SS2_E2
       8,      12,      93,     103,     143
*ELSET, ELSET=SS2_E3
      76
*ELSET, ELSET=SS2_E4
      14,     154
*SURFACE, NAME=SS2
SS2_E1, E1
SS2_E2, E2
SS2_E3, E3
SS2_E4, E4
*ELSET, ELSET=SS7_E1
       1,       2,      70,      71,      80,      81,      82,      83,      84,      85,
     154,     155,     156
*ELSET, ELSET=SS7_E2
      75,      76
*ELSET, ELSET=SS7_E3
      64
*ELSET, ELSET=SS7_E4
       3,      68,      69,      94
*SURFACE, NAME=SS7
SS7_E1, E1
SS7_E2, E2
SS7_E3, E3
SS7_E4, E4
*ELSET, ELSET=SS8_E1
      14,      15,      16,      17,      18,      19,      20,      86,      87,      88,
      89,      90,      91,      92,      93
*ELSET, ELSET=SS8_E4
      13
*SURFACE, NAME=SS8
SS8_E1, E1
SS8_E4, E4
**
********************************** P R O P E R T I E S ************************
*SHELL SECTION, ELSET=EB1, SECTION INTEGRATION=SIMPSON, MATERIAL=Default-Steel
1.000000e+00
**
*END PART
**
**
**
********************************** E N D   P A R T S **********************************
**
**
********************************** A S S E M B L Y ************************************
**
*ASSEMBLY, NAME=ASSEMBLY1
**
*INSTANCE, NAME=Part-Default_1, PART=Part-Default
*END INSTANCE
**
*END ASSEMBLY
**
**
**
*MATERIAL, NAME = Default-Steel
*ELASTIC, TYPE=ISOTROPIC
2.068000e+05, 2.900000e-01
*DENSITY
7.000000e-06
*CONDUCTIVITY,TYPE=ISO
4.500000e-02
*SPECIFIC HEAT
5.000000e+02
**
**
************************************** H I S T O R Y *************************************
**
*PREPRINT
**
**************************************** S T E P 1 ***************************************
*STEP,INC=100,NAME=Default Set
**
*STATIC
1, 1, 1e-05, 1
**
**
**
**
*END STEP
