*HEADING
cubit(/Users/brittanyerickson/Desktop/test_mesh/BP1_v4.inp): 01/20/2026: 14:39:4
version: 2024.8
**
********************************** P A R T S **********************************
*PART, NAME=Part-Default
**
********************************** N O D E S **********************************
*NODE, NSET=ALLNODES
       1,    0.000000e+00,    0.000000e+00,    0.000000e+00
       2,    0.000000e+00,   -4.000000e+01,    0.000000e+00
       3,    0.000000e+00,   -3.076923e+00,    0.000000e+00
       4,    0.000000e+00,   -6.153846e+00,    0.000000e+00
       5,    0.000000e+00,   -9.230769e+00,    0.000000e+00
       6,    0.000000e+00,   -1.230769e+01,    0.000000e+00
       7,    0.000000e+00,   -1.538462e+01,    0.000000e+00
       8,    0.000000e+00,   -1.846154e+01,    0.000000e+00
       9,    0.000000e+00,   -2.153846e+01,    0.000000e+00
      10,    0.000000e+00,   -2.461538e+01,    0.000000e+00
      11,    0.000000e+00,   -2.769231e+01,    0.000000e+00
      12,    0.000000e+00,   -3.076923e+01,    0.000000e+00
      13,    0.000000e+00,   -3.384615e+01,    0.000000e+00
      14,    0.000000e+00,   -3.692308e+01,    0.000000e+00
      15,   -2.000000e+02,    0.000000e+00,    0.000000e+00
      16,   -3.000000e+00,    0.000000e+00,    0.000000e+00
      17,   -8.340374e+00,    0.000000e+00,    0.000000e+00
      18,   -1.710487e+01,    0.000000e+00,    0.000000e+00
      19,   -3.038937e+01,    0.000000e+00,    0.000000e+00
      20,   -4.901130e+01,    0.000000e+00,    0.000000e+00
** ... 152 like lines cut
**
********************************** E L E M E N T S ****************************
*ELEMENT, TYPE=S4R, ELSET=EB1
       1,       7,       6,     113,     112
       2,       6,       5,     114,     113
       3,       5,       4,     115,     114
       4,       4,       3,     116,     115
       5,       3,       1,      16,     116
       6,     112,     113,     163,     171
       7,      12,     120,     125,      13
       8,      13,     125,     126,      14
       9,     125,     128,     127,     126
      10,     125,     120,     121,     128
      11,      14,     126,     129,       2
      12,     126,     127,     144,     129
      13,     127,     130,     159,     144
      14,     127,     128,     131,     130
      15,     121,     122,     131,     128
      16,     122,     123,     132,     131
      17,      16,      17,     133,     116
      18,     164,     115,     116,     133
      19,     124,     164,     133,     134
      20,      17,      18,     134,     133
** ... 129 like lines cut
**
********************************** S I D E S E T S **********************************
*ELSET, ELSET=SS1_E1
      33,      34,      35,      36,      37,     122,     123,     124,     125
*ELSET, ELSET=SS1_E2
      27,     121
*ELSET, ELSET=SS1_E4
     111
*SURFACE, NAME=SS1
SS1_E1, E1
SS1_E2, E2
SS1_E4, E4
*ELSET, ELSET=SS2_E1
      17,      20,      21,      22,      23,      24,      25,      26,      27,      38,
      39,      40,      41,     111,     112,     113,     114,     115,     116,     117,
     118,     119,     120,     121
*ELSET, ELSET=SS2_E2
       5,      37,      93,     106,     149
*ELSET, ELSET=SS2_E3
     108
*ELSET, ELSET=SS2_E4
      28,     109
*SURFACE, NAME=SS2
SS2_E1, E1
SS2_E2, E2
SS2_E3, E3
SS2_E4, E4
*ELSET, ELSET=SS7_E1
       1,       2,       3,       4,       5,      74,      75,      81,      82,      83,
      84,      85,      86,      87,      88,     109,     110
*ELSET, ELSET=SS7_E2
     146,     147
*ELSET, ELSET=SS7_E3
      68
*ELSET, ELSET=SS7_E4
       7,       8,      11,      72,      73,      94
*SURFACE, NAME=SS7
SS7_E1, E1
SS7_E2, E2
SS7_E3, E3
SS7_E4, E4
*ELSET, ELSET=SS8_E1
      28,      29,      30,      31,      32,      89,      90,      91,      92,      93
*SURFACE, NAME=SS8
SS8_E1, E1
**
********************************** P R O P E R T I E S ************************
*SHELL SECTION, ELSET=EB1, SECTION INTEGRATION=SIMPSON, MATERIAL=Default-Steel
1.000000e+00
**
*END PART
**
**
**
********************************** E N D   P A R T S **********************************
**
**
********************************** A S S E M B L Y ************************************
**
*ASSEMBLY, NAME=ASSEMBLY1
**
*INSTANCE, NAME=Part-Default_1, PART=Part-Default
*END INSTANCE
**
*END ASSEMBLY
**
**
**
*MATERIAL, NAME = Default-Steel
*ELASTIC, TYPE=ISOTROPIC
2.068000e+05, 2.900000e-01
*DENSITY
7.000000e-06
*CONDUCTIVITY,TYPE=ISO
4.500000e-02
*SPECIFIC HEAT
5.000000e+02
**
**
************************************** H I S T O R Y *************************************
**
*PREPRINT
**
**************************************** S T E P 1 ***************************************
*STEP,INC=100,NAME=Default Set
**
*STATIC
1, 1, 1e-05, 1
**
**
**
**
*END STEP
