*HEADING
cubit(/Users/brittanyerickson/Desktop/test_mesh/BP1_v2.inp): 05/04/2026: 14:55:1
version: 2024.8
**
********************************** P A R T S **********************************
*PART, NAME=Part-Default
**
********************************** N O D E S **********************************
*NODE, NSET=ALLNODES
       1,    0.000000e+00,    0.000000e+00,    0.000000e+00
       2,    0.000000e+00,   -4.000000e+01,    0.000000e+00
       3,    0.000000e+00,   -5.000000e+00,    0.000000e+00
       4,    0.000000e+00,   -1.000000e+01,    0.000000e+00
       5,    0.000000e+00,   -1.500000e+01,    0.000000e+00
       6,    0.000000e+00,   -2.000000e+01,    0.000000e+00
       7,    0.000000e+00,   -2.500000e+01,    0.000000e+00
       8,    0.000000e+00,   -3.000000e+01,    0.000000e+00
       9,    0.000000e+00,   -3.500000e+01,    0.000000e+00
      10,   -1.600000e+02,    0.000000e+00,    0.000000e+00
      11,   -5.000000e+00,    0.000000e+00,    0.000000e+00
      12,   -1.089403e+01,    0.000000e+00,    0.000000e+00
      13,   -1.795873e+01,    0.000000e+00,    0.000000e+00
      14,   -2.656829e+01,    0.000000e+00,    0.000000e+00
      15,   -3.723556e+01,    0.000000e+00,    0.000000e+00
      16,   -5.067328e+01,    0.000000e+00,    0.000000e+00
      17,   -6.788541e+01,    0.000000e+00,    0.000000e+00
      18,   -9.030442e+01,    0.000000e+00,    0.000000e+00
      19,   -1.200000e+02,    0.000000e+00,    0.000000e+00
      20,    1.600000e+02,    0.000000e+00,    0.000000e+00
** ... 125 like lines cut
**
********************************** E L E M E N T S ****************************
*ELEMENT, TYPE=S4R, ELSET=EB1
       1,       4,       3,      99,     100
       2,       5,       4,     100,     101
       3,       6,       5,     101,     102
       4,       7,       6,     102,     103
       5,       8,       7,     103,     104
       6,       9,       8,     104,     105
       7,       2,       9,     105,     106
       8,      31,       2,     106,     107
       9,      32,      31,     107,     108
      10,      33,      32,     108,     109
      11,      34,      33,     109,     110
      12,      35,      34,     110,     111
      13,      36,      35,     111,     112
      14,      37,      36,     112,     113
      15,      30,      37,     113,      48
      16,      99,       3,       1,      11
      17,      99,      11,      12,     114
      18,     100,      99,     114,     115
      19,     101,     100,     115,     116
      20,     102,     101,     116,     117
** ... 43 like lines cut
*ELEMENT, TYPE=S4R, ELSET=EB2
      64,       3,       4,      53,      52
      65,       4,       5,      54,      53
      66,       5,       6,      55,      54
      67,       6,       7,      56,      55
      68,       7,       8,      57,      56
      69,       8,       9,      58,      57
      70,       9,       2,      59,      58
      71,       2,      31,      60,      59
      72,      31,      32,      61,      60
      73,      32,      33,      62,      61
      74,      33,      34,      63,      62
      75,      34,      35,      64,      63
      76,      35,      36,      65,      64
      77,      36,      37,      66,      65
      78,      37,      30,      49,      66
      79,       3,      52,      29,       1
      80,      29,      52,      67,      28
      81,      52,      53,      68,      67
      82,      53,      54,      69,      68
      83,      54,      55,      70,      69
** ... 43 like lines cut
**
********************************** S I D E S E T S **********************************
*ELSET, ELSET=SS1_E1
      51,      52,     114,     115
*ELSET, ELSET=SS1_E2
      42,     113
*ELSET, ELSET=SS1_E4
      50,     105
*SURFACE, NAME=SS1
SS1_E1, E1
SS1_E2, E2
SS1_E4, E4
*ELSET, ELSET=SS2_E1
      42,      43,      44,      45,      46,      47,      48,      49,      50,     105,
     106,     107,     108,     109,     110,     111,     112,     113
*ELSET, ELSET=SS2_E2
      17,      31,      78
*ELSET, ELSET=SS2_E3
      16,      63,      79,     126
*ELSET, ELSET=SS2_E4
      15,      80,      94
*SURFACE, NAME=SS2
SS2_E1, E1
SS2_E2, E2
SS2_E3, E3
SS2_E4, E4
*ELSET, ELSET=SS7_E1
       1,       2,       3,       4,       5,       6,       7,      64,      65,      66,
      67,      68,      69,      70
*ELSET, ELSET=SS7_E2
      16
*ELSET, ELSET=SS7_E4
      79
*SURFACE, NAME=SS7
SS7_E1, E1
SS7_E2, E2
SS7_E4, E4
*ELSET, ELSET=SS8_E1
       8,       9,      10,      11,      12,      13,      14,      15,      71,      72,
      73,      74,      75,      76,      77,      78
*SURFACE, NAME=SS8
SS8_E1, E1
**
********************************** P R O P E R T I E S ************************
*SHELL SECTION, ELSET=EB1, SECTION INTEGRATION=SIMPSON, MATERIAL=Default-Steel
1.000000e+00
*SHELL SECTION, ELSET=EB2, SECTION INTEGRATION=SIMPSON, MATERIAL=Default-Steel
1.000000e+00
**
*END PART
**
**
**
********************************** E N D   P A R T S **********************************
**
**
********************************** A S S E M B L Y ************************************
**
*ASSEMBLY, NAME=ASSEMBLY1
**
*INSTANCE, NAME=Part-Default_1, PART=Part-Default
*END INSTANCE
**
*END ASSEMBLY
**
**
**
*MATERIAL, NAME = Default-Steel
*ELASTIC, TYPE=ISOTROPIC
2.068000e+05, 2.900000e-01
*DENSITY
7.000000e-06
*CONDUCTIVITY,TYPE=ISO
4.500000e-02
*SPECIFIC HEAT
5.000000e+02
**
**
************************************** H I S T O R Y *************************************
**
*PREPRINT
**
**************************************** S T E P 1 ***************************************
*STEP,INC=100,NAME=Default Set
**
*STATIC
1, 1, 1e-05, 1
**
**
**
**
*END STEP
