*HEADING
cubit(/Users/brittanyerickson/Desktop/test_mesh/BP1_v3.inp): 01/07/2026: 08:34:2
version: 2024.8
**
********************************** P A R T S **********************************
*PART, NAME=Part-Default
**
********************************** N O D E S **********************************
*NODE, NSET=ALLNODES
       1,    0.000000e+00,    0.000000e+00,    0.000000e+00
       2,    0.000000e+00,   -4.000000e+01,    0.000000e+00
       3,    0.000000e+00,   -3.076923e+00,    0.000000e+00
       4,    0.000000e+00,   -6.153846e+00,    0.000000e+00
       5,    0.000000e+00,   -9.230769e+00,    0.000000e+00
       6,    0.000000e+00,   -1.230769e+01,    0.000000e+00
       7,    0.000000e+00,   -1.538462e+01,    0.000000e+00
       8,    0.000000e+00,   -1.846154e+01,    0.000000e+00
       9,    0.000000e+00,   -2.153846e+01,    0.000000e+00
      10,    0.000000e+00,   -2.461538e+01,    0.000000e+00
      11,    0.000000e+00,   -2.769231e+01,    0.000000e+00
      12,    0.000000e+00,   -3.076923e+01,    0.000000e+00
      13,    0.000000e+00,   -3.384615e+01,    0.000000e+00
      14,    0.000000e+00,   -3.692308e+01,    0.000000e+00
      15,   -8.000000e+01,    0.000000e+00,    0.000000e+00
      16,   -3.000000e+00,    0.000000e+00,    0.000000e+00
      17,   -6.319521e+00,    0.000000e+00,    0.000000e+00
      18,   -1.009507e+01,    0.000000e+00,    0.000000e+00
      19,   -1.450881e+01,    0.000000e+00,    0.000000e+00
      20,   -1.981135e+01,    0.000000e+00,    0.000000e+00
** ... 158 like lines cut
**
********************************** E L E M E N T S ****************************
*ELEMENT, TYPE=S4R, ELSET=EB1
       1,       1,      16,     109,       3
       2,      16,      17,     110,     109
       3,      17,      18,     111,     110
       4,      18,      19,     112,     111
       5,      19,      20,     113,     112
       6,      20,      21,     114,     113
       7,      21,      22,     115,     114
       8,      22,      23,     116,     115
       9,      23,      24,     117,     116
      10,      24,      15,      41,     117
      11,       3,     109,     118,       4
      12,     109,     110,     119,     118
      13,     110,     111,     120,     119
      14,     111,     112,     121,     120
      15,     112,     113,     122,     121
      16,     113,     114,     123,     122
      17,     114,     115,     124,     123
      18,     115,     116,     125,     124
      19,     117,      41,      42,     126
      20,     116,     117,     126,     127
** ... 139 like lines cut
**
********************************** S I D E S E T S **********************************
*ELSET, ELSET=SS1_E1
      74,     129,     130
*ELSET, ELSET=SS1_E2
      10,      19,      56,     128
*ELSET, ELSET=SS1_E4
     119
*SURFACE, NAME=SS1
SS1_E1, E1
SS1_E2, E2
SS1_E4, E4
*ELSET, ELSET=SS2_E1
       1,       2,       3,       4,       5,       6,       7,       8,       9,      10,
      75,     119,     120,     121,     122,     123,     124,     125,     126,     127,
     128
*ELSET, ELSET=SS2_E2
      74,      82,     104,     118
*ELSET, ELSET=SS2_E3
      71,     105
*ELSET, ELSET=SS2_E4
     106
*SURFACE, NAME=SS2
SS2_E1, E1
SS2_E2, E2
SS2_E3, E3
SS2_E4, E4
*ELSET, ELSET=SS7_E1
      78,      79,      88,      89,      90,      91,      92,      93,      94,      95,
      96,      97,      98,      99
*ELSET, ELSET=SS7_E4
       1,      11,      22,      33,      46,      47,      57,      64,      65,      66,
      68,     105
*SURFACE, NAME=SS7
SS7_E1, E1
SS7_E4, E4
*ELSET, ELSET=SS8_E1
      72,      73,     100,     101,     102,     103,     104
*ELSET, ELSET=SS8_E2
      70
*ELSET, ELSET=SS8_E4
      76,      77
*SURFACE, NAME=SS8
SS8_E1, E1
SS8_E2, E2
SS8_E4, E4
**
********************************** P R O P E R T I E S ************************
*SHELL SECTION, ELSET=EB1, SECTION INTEGRATION=SIMPSON, MATERIAL=Default-Steel
1.000000e+00
**
*END PART
**
**
**
********************************** E N D   P A R T S **********************************
**
**
********************************** A S S E M B L Y ************************************
**
*ASSEMBLY, NAME=ASSEMBLY1
**
*INSTANCE, NAME=Part-Default_1, PART=Part-Default
*END INSTANCE
**
*END ASSEMBLY
**
**
**
*MATERIAL, NAME = Default-Steel
*ELASTIC, TYPE=ISOTROPIC
2.068000e+05, 2.900000e-01
*DENSITY
7.000000e-06
*CONDUCTIVITY,TYPE=ISO
4.500000e-02
*SPECIFIC HEAT
5.000000e+02
**
**
************************************** H I S T O R Y *************************************
**
*PREPRINT
**
**************************************** S T E P 1 ***************************************
*STEP,INC=100,NAME=Default Set
**
*STATIC
1, 1, 1e-05, 1
**
**
**
**
*END STEP
