*HEADING
cubit(/Users/brittanyerickson/Desktop/test_mesh/BP1_v5.inp): 01/23/2026: 09:24:5
version: 2024.8
**
********************************** P A R T S **********************************
*PART, NAME=Part-Default
**
********************************** N O D E S **********************************
*NODE, NSET=ALLNODES
       1,    0.000000e+00,    0.000000e+00,    0.000000e+00
       2,    0.000000e+00,   -4.000000e+01,    0.000000e+00
       3,    0.000000e+00,   -5.000000e+00,    0.000000e+00
       4,    0.000000e+00,   -1.000000e+01,    0.000000e+00
       5,    0.000000e+00,   -1.500000e+01,    0.000000e+00
       6,    0.000000e+00,   -2.000000e+01,    0.000000e+00
       7,    0.000000e+00,   -2.500000e+01,    0.000000e+00
       8,    0.000000e+00,   -3.000000e+01,    0.000000e+00
       9,    0.000000e+00,   -3.500000e+01,    0.000000e+00
      10,   -1.600000e+02,    0.000000e+00,    0.000000e+00
      11,   -5.000000e+00,    0.000000e+00,    0.000000e+00
      12,   -1.144123e+01,    0.000000e+00,    0.000000e+00
      13,   -1.964048e+01,    0.000000e+00,    0.000000e+00
      14,   -2.995603e+01,    0.000000e+00,    0.000000e+00
      15,   -4.278466e+01,    0.000000e+00,    0.000000e+00
      16,   -5.855407e+01,    0.000000e+00,    0.000000e+00
      17,   -7.771180e+01,    0.000000e+00,    0.000000e+00
      18,   -1.007117e+02,    0.000000e+00,    0.000000e+00
      19,   -1.280000e+02,    0.000000e+00,    0.000000e+00
      20,    1.600000e+02,    0.000000e+00,    0.000000e+00
** ... 108 like lines cut
**
********************************** E L E M E N T S ****************************
*ELEMENT, TYPE=S4R, ELSET=EB1
       1,       1,      11,      90,       3
       2,      11,      12,      91,      90
       3,      12,      13,      92,      91
       4,      13,      14,      93,      92
       5,      14,      15,      94,      93
       6,      15,      16,      95,      94
       7,      16,      17,      96,      95
       8,      17,      18,      97,      96
       9,      18,      19,      98,      97
      10,      19,      10,      35,      98
      11,       3,      90,      99,       4
      12,      90,      91,     106,      99
      13,      91,      92,     108,     106
      14,      92,      93,     100,     108
      15,      93,      94,     101,     100
      16,      94,      95,     102,     101
      17,      95,      96,     103,     102
      18,      96,      97,     104,     103
      19,      97,      98,     105,     104
      20,      98,      35,      36,     105
** ... 87 like lines cut
**
********************************** S I D E S E T S **********************************
*ELSET, ELSET=SS1_E1
      29,      30,      31,      89,      90,      91
*ELSET, ELSET=SS1_E2
      10,      20,      88
*ELSET, ELSET=SS1_E4
      78
*SURFACE, NAME=SS1
SS1_E1, E1
SS1_E2, E2
SS1_E4, E4
*ELSET, ELSET=SS2_E1
       1,       2,       3,       4,       5,       6,       7,       8,       9,      10,
      32,      33,      34,      78,      79,      80,      81,      82,      83,      84,
      85,      86,      87,      88
*ELSET, ELSET=SS2_E2
      31,      65,      77
*ELSET, ELSET=SS2_E3
      66
*ELSET, ELSET=SS2_E4
      26,      67
*SURFACE, NAME=SS2
SS2_E1, E1
SS2_E2, E2
SS2_E3, E3
SS2_E4, E4
*ELSET, ELSET=SS7_E1
      39,      55,      56,      57,      58,      59,      60,      61
*ELSET, ELSET=SS7_E2
      52
*ELSET, ELSET=SS7_E3
      51
*ELSET, ELSET=SS7_E4
       1,      11,      21,      22,      25,      66
*SURFACE, NAME=SS7
SS7_E1, E1
SS7_E2, E2
SS7_E3, E3
SS7_E4, E4
*ELSET, ELSET=SS8_E1
      26,      27,      28,      62,      63,      64,      65
*ELSET, ELSET=SS8_E2
      38
*SURFACE, NAME=SS8
SS8_E1, E1
SS8_E2, E2
**
********************************** P R O P E R T I E S ************************
*SHELL SECTION, ELSET=EB1, SECTION INTEGRATION=SIMPSON, MATERIAL=Default-Steel
1.000000e+00
**
*END PART
**
**
**
********************************** E N D   P A R T S **********************************
**
**
********************************** A S S E M B L Y ************************************
**
*ASSEMBLY, NAME=ASSEMBLY1
**
*INSTANCE, NAME=Part-Default_1, PART=Part-Default
*END INSTANCE
**
*END ASSEMBLY
**
**
**
*MATERIAL, NAME = Default-Steel
*ELASTIC, TYPE=ISOTROPIC
2.068000e+05, 2.900000e-01
*DENSITY
7.000000e-06
*CONDUCTIVITY,TYPE=ISO
4.500000e-02
*SPECIFIC HEAT
5.000000e+02
**
**
************************************** H I S T O R Y *************************************
**
*PREPRINT
**
**************************************** S T E P 1 ***************************************
*STEP,INC=100,NAME=Default Set
**
*STATIC
1, 1, 1e-05, 1
**
**
**
**
*END STEP
