*HEADING
cubit(s/brittanyerickson/Desktop/test_mesh/BP9_2D_30d_large.inp): 07/29/2026: 12
version: 2024.8
**
********************************** P A R T S **********************************
*PART, NAME=Part-Default
**
********************************** N O D E S **********************************
*NODE, NSET=ALLNODES
       1,    0.000000e+00,    0.000000e+00,    0.000000e+00
       2,   -2.400000e+02,    0.000000e+00,    0.000000e+00
       3,   -8.000000e+00,    0.000000e+00,    0.000000e+00
       4,   -1.555477e+01,    0.000000e+00,    0.000000e+00
       5,   -2.289713e+01,    0.000000e+00,    0.000000e+00
       6,   -3.024111e+01,    0.000000e+00,    0.000000e+00
       7,   -3.780124e+01,    0.000000e+00,    0.000000e+00
       8,   -4.581185e+01,    0.000000e+00,    0.000000e+00
       9,   -5.454913e+01,    0.000000e+00,    0.000000e+00
      10,   -6.435971e+01,    0.000000e+00,    0.000000e+00
      11,   -7.570058e+01,    0.000000e+00,    0.000000e+00
      12,   -8.919796e+01,    0.000000e+00,    0.000000e+00
      13,   -1.057375e+02,    0.000000e+00,    0.000000e+00
      14,   -1.266062e+02,    0.000000e+00,    0.000000e+00
      15,   -1.537201e+02,    0.000000e+00,    0.000000e+00
      16,   -1.900000e+02,    0.000000e+00,    0.000000e+00
      17,    2.400000e+02,    0.000000e+00,    0.000000e+00
      18,    1.900000e+02,    0.000000e+00,    0.000000e+00
      19,    1.537201e+02,    0.000000e+00,    0.000000e+00
      20,    1.266062e+02,    0.000000e+00,    0.000000e+00
** ... 224 like lines cut
**
********************************** E L E M E N T S ****************************
*ELEMENT, TYPE=S4R, ELSET=EB1
       1,      63,      64,     150,     140
       2,      64,      65,     151,     150
       3,      65,      66,     152,     151
       4,      66,      32,      34,     152
       5,     140,     150,     153,     141
       6,     150,     151,     154,     153
       7,     151,     152,     155,     154
       8,     152,      34,      35,     155
       9,     141,     153,     156,     142
      10,     153,     154,     157,     156
      11,     154,     155,     158,     157
      12,     155,      35,      36,     158
      13,     142,     156,     159,     143
      14,     156,     157,     160,     159
      15,     157,     158,     161,     160
      16,     158,      36,      37,     161
      17,     143,     159,     162,     144
      18,     159,     160,     163,     162
      19,     160,     161,     164,     163
      20,     161,      37,      38,     164
** ... 114 like lines cut
*ELEMENT, TYPE=S4R, ELSET=EB2
     135,      45,      46,      86,      83
     136,      46,      47,      87,      86
     137,      47,      48,      88,      87
     138,      48,      33,      89,      88
     139,      33,      44,      90,      89
     140,      44,      43,      91,      90
     141,      43,      42,      92,      91
     142,      42,      41,      93,      92
     143,      41,      40,      94,      93
     144,      40,      39,      95,      94
     145,      39,      38,      96,      95
     146,      38,      37,      97,      96
     147,      37,      36,      98,      97
     148,      36,      35,      99,      98
     149,      35,      34,     100,      99
     150,      34,      32,      59,     100
     151,      83,      86,     101,      84
     152,      86,      87,     102,     101
     153,      87,      88,     103,     102
     154,      88,      89,     104,     103
** ... 64 like lines cut
**
********************************** S I D E S E T S **********************************
*ELSET, ELSET=SS1_E2
      79,      90,     101,     112,     123,     199,     200,     201,     202,     203
*SURFACE, NAME=SS1
SS1_E2, E2
*ELSET, ELSET=SS2_E1
       1,       2,       3,       4,      69,      70,      71,      72,      73,      74,
      75,      76,      77,      78,      79,     199,     215,     216,     217,     218
*ELSET, ELSET=SS2_E2
      50,      56,      62,      68,     134,     150,     166,     182,     198,     204,
     205,     206,     207,     208,     209,     210,     211,     212,     213,     214
*SURFACE, NAME=SS2
SS2_E1, E1
SS2_E2, E2
*ELSET, ELSET=SS7_E1
      46,      47,      48,      49,      50,     135,     136,     137,     138
*ELSET, ELSET=SS7_E2
     218
*SURFACE, NAME=SS7
SS7_E1, E1
SS7_E2, E2
*ELSET, ELSET=SS8_E1
      45,     139,     140,     141,     142,     143,     144,     145,     146,     147,
     148,     149,     150
*ELSET, ELSET=SS8_E2
       4,       8,      12,      16,      20,      24,      28,      32,      36,      40,
      44
*SURFACE, NAME=SS8
SS8_E1, E1
SS8_E2, E2
**
********************************** P R O P E R T I E S ************************
*SHELL SECTION, ELSET=EB1, SECTION INTEGRATION=SIMPSON, MATERIAL=Default-Steel
1.000000e+00
*SHELL SECTION, ELSET=EB2, SECTION INTEGRATION=SIMPSON, MATERIAL=Default-Steel
1.000000e+00
**
*END PART
**
**
**
********************************** E N D   P A R T S **********************************
**
**
********************************** A S S E M B L Y ************************************
**
*ASSEMBLY, NAME=ASSEMBLY1
**
*INSTANCE, NAME=Part-Default_1, PART=Part-Default
*END INSTANCE
**
*END ASSEMBLY
**
**
**
*MATERIAL, NAME = Default-Steel
*ELASTIC, TYPE=ISOTROPIC
2.068000e+05, 2.900000e-01
*DENSITY
7.000000e-06
*CONDUCTIVITY,TYPE=ISO
4.500000e-02
*SPECIFIC HEAT
5.000000e+02
**
**
************************************** H I S T O R Y *************************************
**
*PREPRINT
**
**************************************** S T E P 1 ***************************************
*STEP,INC=100,NAME=Default Set
**
*STATIC
1, 1, 1e-05, 1
**
**
**
**
*END STEP
