*HEADING
cubit(/Users/brittanyerickson/Desktop/test_mesh/BP9_2D_90d.inp): 07/29/2026: 12:
version: 2024.8
**
********************************** P A R T S **********************************
*PART, NAME=Part-Default
**
********************************** N O D E S **********************************
*NODE, NSET=ALLNODES
       1,    0.000000e+00,    0.000000e+00,    0.000000e+00
       2,   -1.200000e+02,    0.000000e+00,    0.000000e+00
       3,   -8.000000e+00,    0.000000e+00,    0.000000e+00
       4,   -1.515427e+01,    0.000000e+00,    0.000000e+00
       5,   -2.197646e+01,    0.000000e+00,    0.000000e+00
       6,   -2.891382e+01,    0.000000e+00,    0.000000e+00
       7,   -3.643809e+01,    0.000000e+00,    0.000000e+00
       8,   -4.514421e+01,    0.000000e+00,    0.000000e+00
       9,   -5.589332e+01,    0.000000e+00,    0.000000e+00
      10,   -7.005977e+01,    0.000000e+00,    0.000000e+00
      11,   -9.000000e+01,    0.000000e+00,    0.000000e+00
      12,    1.200000e+02,    0.000000e+00,    0.000000e+00
      13,    9.000000e+01,    0.000000e+00,    0.000000e+00
      14,    7.005977e+01,    0.000000e+00,    0.000000e+00
      15,    5.589332e+01,    0.000000e+00,    0.000000e+00
      16,    4.514421e+01,    0.000000e+00,    0.000000e+00
      17,    3.643809e+01,    0.000000e+00,    0.000000e+00
      18,    2.891382e+01,    0.000000e+00,    0.000000e+00
      19,    2.197646e+01,    0.000000e+00,    0.000000e+00
      20,    1.515427e+01,    0.000000e+00,    0.000000e+00
** ... 99 like lines cut
**
********************************** E L E M E N T S ****************************
*ELEMENT, TYPE=S4R, ELSET=EB1
       1,      22,      24,      86,      47
       2,      24,      25,      87,      86
       3,      25,      26,      88,      87
       4,      26,      27,      89,      88
       5,      27,      28,      90,      89
       6,      28,      29,      91,      90
       7,      29,      23,      92,      91
       8,      23,      33,      93,      92
       9,      33,      32,      94,      93
      10,      32,      31,      95,      94
      11,      31,      30,      96,      95
      12,      30,       1,       3,      96
      13,       3,       4,      97,      96
      14,       4,       5,      98,      97
      15,       5,       6,      99,      98
      16,       6,       7,     100,      99
      17,       7,       8,     101,     100
      18,       8,       9,     102,     101
      19,       9,      10,     103,     102
      20,      10,      11,     104,     103
** ... 28 like lines cut
*ELEMENT, TYPE=S4R, ELSET=EB2
      49,       1,      30,      48,      21
      50,      30,      31,      49,      48
      51,      31,      32,      50,      49
      52,      32,      33,      51,      50
      53,      33,      23,      52,      51
      54,      23,      29,      53,      52
      55,      29,      28,      54,      53
      56,      28,      27,      55,      54
      57,      27,      26,      56,      55
      58,      26,      25,      57,      56
      59,      25,      24,      58,      57
      60,      24,      22,      42,      58
      61,      12,      13,      59,      37
      62,      13,      14,      60,      59
      63,      14,      15,      61,      60
      64,      15,      16,      62,      61
      65,      16,      17,      63,      62
      66,      17,      18,      64,      63
      67,      18,      19,      65,      64
      68,      19,      20,      66,      65
** ... 32 like lines cut
**
********************************** S I D E S E T S **********************************
*ELSET, ELSET=SS1_E1
      25,      26,      73,      74
*ELSET, ELSET=SS1_E2
      21,      72
*ELSET, ELSET=SS1_E4
      22,      61
*SURFACE, NAME=SS1
SS1_E1, E1
SS1_E2, E2
SS1_E4, E4
*ELSET, ELSET=SS2_E1
      13,      14,      15,      16,      17,      18,      19,      20,      21,      22,
      23,      24,      61,      62,      63,      64,      65,      66,      67,      68,
      69,      70,      71,      72
*ELSET, ELSET=SS2_E2
      12,      60
*ELSET, ELSET=SS2_E4
       1,      49
*SURFACE, NAME=SS2
SS2_E1, E1
SS2_E2, E2
SS2_E4, E4
*ELSET, ELSET=SS7_E1
       8,       9,      10,      11,      12,      49,      50,      51,      52,      53
*SURFACE, NAME=SS7
SS7_E1, E1
*ELSET, ELSET=SS8_E1
       1,       2,       3,       4,       5,       6,       7,      54,      55,      56,
      57,      58,      59,      60
*SURFACE, NAME=SS8
SS8_E1, E1
**
********************************** P R O P E R T I E S ************************
*SHELL SECTION, ELSET=EB1, SECTION INTEGRATION=SIMPSON, MATERIAL=Default-Steel
1.000000e+00
*SHELL SECTION, ELSET=EB2, SECTION INTEGRATION=SIMPSON, MATERIAL=Default-Steel
1.000000e+00
**
*END PART
**
**
**
********************************** E N D   P A R T S **********************************
**
**
********************************** A S S E M B L Y ************************************
**
*ASSEMBLY, NAME=ASSEMBLY1
**
*INSTANCE, NAME=Part-Default_1, PART=Part-Default
*END INSTANCE
**
*END ASSEMBLY
**
**
**
*MATERIAL, NAME = Default-Steel
*ELASTIC, TYPE=ISOTROPIC
2.068000e+05, 2.900000e-01
*DENSITY
7.000000e-06
*CONDUCTIVITY,TYPE=ISO
4.500000e-02
*SPECIFIC HEAT
5.000000e+02
**
**
************************************** H I S T O R Y *************************************
**
*PREPRINT
**
**************************************** S T E P 1 ***************************************
*STEP,INC=100,NAME=Default Set
**
*STATIC
1, 1, 1e-05, 1
**
**
**
**
*END STEP
