*HEADING
cubit(/Users/brittanyerickson/Desktop/test_mesh/BP9_2D_60d.inp): 07/29/2026: 12:
version: 2024.8
**
********************************** P A R T S **********************************
*PART, NAME=Part-Default
**
********************************** N O D E S **********************************
*NODE, NSET=ALLNODES
       1,    0.000000e+00,    0.000000e+00,    0.000000e+00
       2,   -1.200000e+02,    0.000000e+00,    0.000000e+00
       3,   -9.000000e+00,    0.000000e+00,    0.000000e+00
       4,   -1.627033e+01,    0.000000e+00,    0.000000e+00
       5,   -2.259492e+01,    0.000000e+00,    0.000000e+00
       6,   -2.851784e+01,    0.000000e+00,    0.000000e+00
       7,   -3.448881e+01,    0.000000e+00,    0.000000e+00
       8,   -4.096950e+01,    0.000000e+00,    0.000000e+00
       9,   -4.854461e+01,    0.000000e+00,    0.000000e+00
      10,   -5.808400e+01,    0.000000e+00,    0.000000e+00
      11,   -7.103392e+01,    0.000000e+00,    0.000000e+00
      12,   -9.000000e+01,    0.000000e+00,    0.000000e+00
      13,    1.200000e+02,    0.000000e+00,    0.000000e+00
      14,    9.000000e+01,    0.000000e+00,    0.000000e+00
      15,    7.103392e+01,    0.000000e+00,    0.000000e+00
      16,    5.808400e+01,    0.000000e+00,    0.000000e+00
      17,    4.854461e+01,    0.000000e+00,    0.000000e+00
      18,    4.096950e+01,    0.000000e+00,    0.000000e+00
      19,    3.448881e+01,    0.000000e+00,    0.000000e+00
      20,    2.851784e+01,    0.000000e+00,    0.000000e+00
** ... 90 like lines cut
**
********************************** E L E M E N T S ****************************
*ELEMENT, TYPE=S4R, ELSET=EB1
       1,      24,      26,      74,      48
       2,      26,      27,      75,      74
       3,      27,      28,      76,      75
       4,      28,      29,      96,      76
       5,      29,      30,      77,      96
       6,      30,      31,      78,      77
       7,      31,      25,      79,      78
       8,      25,      34,      80,      79
       9,      34,      33,      81,      80
      10,      33,      32,      82,      81
      11,      32,       1,       3,      82
      12,       3,       4,      83,      82
      13,       4,       5,      84,      83
      14,       5,       6,      85,      84
      15,       6,       7,      86,      85
      16,       7,       8,      87,      86
      17,       8,       9,      88,      87
      18,       9,      10,      89,      88
      19,      10,      11,      90,      89
      20,      11,      12,      91,      90
** ... 31 like lines cut
*ELEMENT, TYPE=S4R, ELSET=EB2
      52,       1,      32,      49,      23
      53,      32,      33,      63,      49
      54,      33,      34,      73,      63
      55,      34,      25,      67,      73
      56,      25,      31,      66,      67
      57,      31,      30,      65,      66
      58,      30,      29,      64,      65
      59,      29,      28,      50,      64
      60,      28,      27,      68,      50
      61,      15,      16,      52,      51
      62,      16,      17,      53,      52
      63,      17,      18,      54,      53
      64,      18,      19,      55,      54
      65,      19,      20,      56,      55
      66,      35,      36,      57,      45
      67,      36,      37,      58,      57
      68,      58,      44,      45,      57
      69,      51,      52,      60,      59
      70,      52,      53,      61,      60
      71,      53,      54,      62,      61
** ... 19 like lines cut
**
********************************** S I D E S E T S **********************************
*ELSET, ELSET=SS1_E1
      22,      66,      67,      80
*ELSET, ELSET=SS1_E2
      21
*ELSET, ELSET=SS1_E3
      44,      50,      88
*SURFACE, NAME=SS1
SS1_E1, E1
SS1_E2, E2
SS1_E3, E3
*ELSET, ELSET=SS2_E1
      12,      13,      14,      15,      16,      17,      18,      19,      20,      21,
      23,      24,      61,      62,      63,      64,      65
*ELSET, ELSET=SS2_E2
      11,      22,      68,      78,      85,      89,      90
*ELSET, ELSET=SS2_E3
      82
*ELSET, ELSET=SS2_E4
       1,      52,      66,      73,      88
*SURFACE, NAME=SS2
SS2_E1, E1
SS2_E2, E2
SS2_E3, E3
SS2_E4, E4
*ELSET, ELSET=SS7_E1
       8,       9,      10,      11,      52,      53,      54,      55
*SURFACE, NAME=SS7
SS7_E1, E1
*ELSET, ELSET=SS8_E1
       1,       2,       3,       4,       5,       6,       7,      56,      57,      58,
      59,      60,      78
*ELSET, ELSET=SS8_E3
      79
*SURFACE, NAME=SS8
SS8_E1, E1
SS8_E3, E3
**
********************************** P R O P E R T I E S ************************
*SHELL SECTION, ELSET=EB1, SECTION INTEGRATION=SIMPSON, MATERIAL=Default-Steel
1.000000e+00
*SHELL SECTION, ELSET=EB2, SECTION INTEGRATION=SIMPSON, MATERIAL=Default-Steel
1.000000e+00
**
*END PART
**
**
**
********************************** E N D   P A R T S **********************************
**
**
********************************** A S S E M B L Y ************************************
**
*ASSEMBLY, NAME=ASSEMBLY1
**
*INSTANCE, NAME=Part-Default_1, PART=Part-Default
*END INSTANCE
**
*END ASSEMBLY
**
**
**
*MATERIAL, NAME = Default-Steel
*ELASTIC, TYPE=ISOTROPIC
2.068000e+05, 2.900000e-01
*DENSITY
7.000000e-06
*CONDUCTIVITY,TYPE=ISO
4.500000e-02
*SPECIFIC HEAT
5.000000e+02
**
**
************************************** H I S T O R Y *************************************
**
*PREPRINT
**
**************************************** S T E P 1 ***************************************
*STEP,INC=100,NAME=Default Set
**
*STATIC
1, 1, 1e-05, 1
**
**
**
**
*END STEP
