*HEADING
cubit(/Users/brittanyerickson/Desktop/test_mesh/BP9_2D_60d.inp): 06/02/2026: 10:
version: 2024.8
**
********************************** P A R T S **********************************
*PART, NAME=Part-Default
**
********************************** N O D E S **********************************
*NODE, NSET=ALLNODES
       1,    0.000000e+00,    0.000000e+00,    0.000000e+00
       2,   -1.200000e+02,    0.000000e+00,    0.000000e+00
       3,   -5.000000e+00,    0.000000e+00,    0.000000e+00
       4,   -9.958945e+00,    0.000000e+00,    0.000000e+00
       5,   -1.508464e+01,    0.000000e+00,    0.000000e+00
       6,   -2.060748e+01,    0.000000e+00,    0.000000e+00
       7,   -2.681167e+01,    0.000000e+00,    0.000000e+00
       8,   -3.407814e+01,    0.000000e+00,    0.000000e+00
       9,   -4.295079e+01,    0.000000e+00,    0.000000e+00
      10,   -5.424575e+01,    0.000000e+00,    0.000000e+00
      11,   -6.923913e+01,    0.000000e+00,    0.000000e+00
      12,   -9.000000e+01,    0.000000e+00,    0.000000e+00
      13,    1.200000e+02,    0.000000e+00,    0.000000e+00
      14,    9.000000e+01,    0.000000e+00,    0.000000e+00
      15,    6.923913e+01,    0.000000e+00,    0.000000e+00
      16,    5.424575e+01,    0.000000e+00,    0.000000e+00
      17,    4.295079e+01,    0.000000e+00,    0.000000e+00
      18,    3.407814e+01,    0.000000e+00,    0.000000e+00
      19,    2.681167e+01,    0.000000e+00,    0.000000e+00
      20,    2.060748e+01,    0.000000e+00,    0.000000e+00
** ... 114 like lines cut
**
********************************** E L E M E N T S ****************************
*ELEMENT, TYPE=S4R, ELSET=EB1
       1,       3,       4,      86,     132
       2,       4,       5,      87,      86
       3,       5,       6,      88,      87
       4,       6,       7,      89,      88
       5,       7,       8,      90,      89
       6,       8,       9,      91,      90
       7,       9,      10,      92,      91
       8,      10,      11,      93,      92
       9,      11,      12,      94,      93
      10,      12,       2,      44,      94
      11,      24,      26,      95,      52
      12,      26,      27,      96,      95
      13,      27,      28,      97,      96
      14,      28,      29,      98,      97
      15,      29,      30,      99,      98
      16,      30,      31,     100,      99
      17,      31,      25,     101,     100
      18,      25,      38,     102,     101
      19,      38,      37,     103,     102
      20,      37,      36,     104,     103
** ... 46 like lines cut
*ELEMENT, TYPE=S4R, ELSET=EB2
      67,      32,      33,      54,      53
      68,      33,      34,      55,      54
      69,      34,      35,      56,      55
      70,      35,      36,      57,      56
      71,      36,      37,      58,      57
      72,      37,      38,      59,      58
      73,      38,      25,      60,      59
      74,      25,      31,      61,      60
      75,      31,      30,      62,      61
      76,      30,      29,      63,      62
      77,      29,      28,      64,      63
      78,      28,      27,      65,      64
      79,      27,      26,      66,      65
      80,      26,      24,      47,      66
      81,      32,      53,      23,       1
      82,      54,      55,      68,      67
      83,      61,      62,      80,      70
      84,      62,      63,      71,      80
      85,      63,      64,      72,      71
      86,      64,      65,      79,      72
** ... 28 like lines cut
**
********************************** S I D E S E T S **********************************
*ELSET, ELSET=SS1_E1
      25,      26,      93
*ELSET, ELSET=SS1_E2
      10,      65,     101
*ELSET, ELSET=SS1_E3
     100
*ELSET, ELSET=SS1_E4
      89
*SURFACE, NAME=SS1
SS1_E1, E1
SS1_E2, E2
SS1_E3, E3
SS1_E4, E4
*ELSET, ELSET=SS2_E1
       1,       2,       3,       4,       5,       6,       7,       8,       9,      10,
      27,      28,      89,      90,      91,      92,      94
*ELSET, ELSET=SS2_E2
      63,      66,      80,      88,     112,     113
*ELSET, ELSET=SS2_E3
      81,     111
*ELSET, ELSET=SS2_E4
      11,      93,     108,     109,     110
*SURFACE, NAME=SS2
SS2_E1, E1
SS2_E2, E2
SS2_E3, E3
SS2_E4, E4
*ELSET, ELSET=SS7_E1
      18,      19,      20,      21,      22,      23,      24,      67,      68,      69,
      70,      71,      72,      73
*ELSET, ELSET=SS7_E2
      62
*ELSET, ELSET=SS7_E4
      81
*SURFACE, NAME=SS7
SS7_E1, E1
SS7_E2, E2
SS7_E4, E4
*ELSET, ELSET=SS8_E1
      11,      12,      13,      14,      15,      16,      17,      74,      75,      76,
      77,      78,      79,      80
*SURFACE, NAME=SS8
SS8_E1, E1
**
********************************** P R O P E R T I E S ************************
*SHELL SECTION, ELSET=EB1, SECTION INTEGRATION=SIMPSON, MATERIAL=Default-Steel
1.000000e+00
*SHELL SECTION, ELSET=EB2, SECTION INTEGRATION=SIMPSON, MATERIAL=Default-Steel
1.000000e+00
**
*END PART
**
**
**
********************************** E N D   P A R T S **********************************
**
**
********************************** A S S E M B L Y ************************************
**
*ASSEMBLY, NAME=ASSEMBLY1
**
*INSTANCE, NAME=Part-Default_1, PART=Part-Default
*END INSTANCE
**
*END ASSEMBLY
**
**
**
*MATERIAL, NAME = Default-Steel
*ELASTIC, TYPE=ISOTROPIC
2.068000e+05, 2.900000e-01
*DENSITY
7.000000e-06
*CONDUCTIVITY,TYPE=ISO
4.500000e-02
*SPECIFIC HEAT
5.000000e+02
**
**
************************************** H I S T O R Y *************************************
**
*PREPRINT
**
**************************************** S T E P 1 ***************************************
*STEP,INC=100,NAME=Default Set
**
*STATIC
1, 1, 1e-05, 1
**
**
**
**
*END STEP
