*HEADING
cubit(/Users/brittanyerickson/Desktop/test_mesh/BP9_2D_30d.inp): 06/02/2026: 10:
version: 2024.8
**
********************************** P A R T S **********************************
*PART, NAME=Part-Default
**
********************************** N O D E S **********************************
*NODE, NSET=ALLNODES
       1,    0.000000e+00,    0.000000e+00,    0.000000e+00
       2,   -1.200000e+02,    0.000000e+00,    0.000000e+00
       3,   -8.000000e+00,    0.000000e+00,    0.000000e+00
       4,   -1.395455e+01,    0.000000e+00,    0.000000e+00
       5,   -1.866179e+01,    0.000000e+00,    0.000000e+00
       6,   -2.261203e+01,    0.000000e+00,    0.000000e+00
       7,   -2.612996e+01,    0.000000e+00,    0.000000e+00
       8,   -2.945445e+01,    0.000000e+00,    0.000000e+00
       9,   -3.278853e+01,    0.000000e+00,    0.000000e+00
      10,   -3.633772e+01,    0.000000e+00,    0.000000e+00
      11,   -4.034918e+01,    0.000000e+00,    0.000000e+00
      12,   -4.516442e+01,    0.000000e+00,    0.000000e+00
      13,   -5.130494e+01,    0.000000e+00,    0.000000e+00
      14,   -5.962683e+01,    0.000000e+00,    0.000000e+00
      15,   -7.161808e+01,    0.000000e+00,    0.000000e+00
      16,   -9.000000e+01,    0.000000e+00,    0.000000e+00
      17,    1.200000e+02,    0.000000e+00,    0.000000e+00
      18,    9.000000e+01,    0.000000e+00,    0.000000e+00
      19,    7.161808e+01,    0.000000e+00,    0.000000e+00
      20,    5.962683e+01,    0.000000e+00,    0.000000e+00
** ... 155 like lines cut
**
********************************** E L E M E N T S ****************************
*ELEMENT, TYPE=S4R, ELSET=EB1
       1,      51,      58,     107,      97
       2,      58,      59,     108,     107
       3,      59,      60,     109,     108
       4,      60,      32,      34,     109
       5,      97,     107,     110,      98
       6,     107,     108,     111,     110
       7,     108,     109,     112,     111
       8,     109,      34,      35,     112
       9,      98,     110,     113,      99
      10,     110,     111,     114,     113
      11,     111,     112,     115,     114
      12,     112,      35,      36,     115
      13,      99,     113,     116,     100
      14,     113,     114,     117,     116
      15,     114,     115,     118,     117
      16,     115,      36,      37,     118
      17,     100,     116,     119,     101
      18,     116,     117,     120,     119
      19,     117,     118,     121,     120
      20,     118,      37,      38,     121
** ... 84 like lines cut
*ELEMENT, TYPE=S4R, ELSET=EB2
     105,      61,      57,      47,      48
     106,      62,      56,      57,      61
     107,      62,      61,      48,      49
     108,      63,      55,      56,      62
     109,      63,      62,      49,      50
     110,      64,      31,       1,      43
     111,      65,      30,      31,      64
     112,      65,      64,      43,      44
     113,      39,      38,      67,      66
     114,      38,      37,      68,      67
     115,      37,      36,      69,      68
     116,      36,      35,      70,      69
     117,      35,      34,      71,      70
     118,      34,      32,      72,      71
     119,      32,      55,      63,      72
     120,      39,      66,      73,      40
     121,      66,      75,      74,      73
     122,      66,      67,      68,      75
     123,      68,      69,      76,      75
     124,      69,      70,      19,      76
** ... 27 like lines cut
**
********************************** S I D E S E T S **********************************
*ELSET, ELSET=SS1_E2
      71,      82,      93,     104
*ELSET, ELSET=SS1_E3
     105,     107,     109,     127
*SURFACE, NAME=SS1
SS1_E2, E2
SS1_E3, E3
*ELSET, ELSET=SS2_E1
       1,       2,       3,       4,      61,      62,      63,      64,      65,      66,
      67,      68,      69,      70,      71,     119,     128,     129,     130,     131,
     132,     133,     134,     146
*ELSET, ELSET=SS2_E2
      48,      52,      56,      60,     105,     106,     108,     110,     111,     145,
     148
*ELSET, ELSET=SS2_E3
     125,     126,     144
*SURFACE, NAME=SS2
SS2_E1, E1
SS2_E2, E2
SS2_E3, E3
*ELSET, ELSET=SS7_E1
      45,      46,      47,      48,     147
*ELSET, ELSET=SS7_E2
      44
*ELSET, ELSET=SS7_E3
     110,     112,     149,     150
*SURFACE, NAME=SS7
SS7_E1, E1
SS7_E2, E2
SS7_E3, E3
*ELSET, ELSET=SS8_E1
     113,     114,     115,     116,     117,     118,     135
*ELSET, ELSET=SS8_E2
       4,       8,      12,      16,      20,      24,      28,      32,      36,      40,
     141
*ELSET, ELSET=SS8_E4
     120,     142
*SURFACE, NAME=SS8
SS8_E1, E1
SS8_E2, E2
SS8_E4, E4
**
********************************** P R O P E R T I E S ************************
*SHELL SECTION, ELSET=EB1, SECTION INTEGRATION=SIMPSON, MATERIAL=Default-Steel
1.000000e+00
*SHELL SECTION, ELSET=EB2, SECTION INTEGRATION=SIMPSON, MATERIAL=Default-Steel
1.000000e+00
**
*END PART
**
**
**
********************************** E N D   P A R T S **********************************
**
**
********************************** A S S E M B L Y ************************************
**
*ASSEMBLY, NAME=ASSEMBLY1
**
*INSTANCE, NAME=Part-Default_1, PART=Part-Default
*END INSTANCE
**
*END ASSEMBLY
**
**
**
*MATERIAL, NAME = Default-Steel
*ELASTIC, TYPE=ISOTROPIC
2.068000e+05, 2.900000e-01
*DENSITY
7.000000e-06
*CONDUCTIVITY,TYPE=ISO
4.500000e-02
*SPECIFIC HEAT
5.000000e+02
**
**
************************************** H I S T O R Y *************************************
**
*PREPRINT
**
**************************************** S T E P 1 ***************************************
*STEP,INC=100,NAME=Default Set
**
*STATIC
1, 1, 1e-05, 1
**
**
**
**
*END STEP
