*HEADING
cubit(sers/brittanyerickson/Desktop/test_mesh/brittany_test.inp): 11/18/2025: 14
version: 2024.8
**
********************************** P A R T S **********************************
*PART, NAME=Part-Default
**
********************************** N O D E S **********************************
*NODE, NSET=ALLNODES
       1,    0.000000e+00,    0.000000e+00,    0.000000e+00
       2,    0.000000e+00,   -4.000000e+01,    0.000000e+00
       3,    0.000000e+00,   -3.076923e+00,    0.000000e+00
       4,    0.000000e+00,   -6.153846e+00,    0.000000e+00
       5,    0.000000e+00,   -9.230769e+00,    0.000000e+00
       6,    0.000000e+00,   -1.230769e+01,    0.000000e+00
       7,    0.000000e+00,   -1.538462e+01,    0.000000e+00
       8,    0.000000e+00,   -1.846154e+01,    0.000000e+00
       9,    0.000000e+00,   -2.153846e+01,    0.000000e+00
      10,    0.000000e+00,   -2.461538e+01,    0.000000e+00
      11,    0.000000e+00,   -2.769231e+01,    0.000000e+00
      12,    0.000000e+00,   -3.076923e+01,    0.000000e+00
      13,    0.000000e+00,   -3.384615e+01,    0.000000e+00
      14,    0.000000e+00,   -3.692308e+01,    0.000000e+00
      15,   -4.000000e+02,    0.000000e+00,    0.000000e+00
      16,   -3.000000e+00,    0.000000e+00,    0.000000e+00
      17,   -9.299763e+00,    0.000000e+00,    0.000000e+00
      18,   -2.125414e+01,    0.000000e+00,    0.000000e+00
      19,   -4.181423e+01,    0.000000e+00,    0.000000e+00
      20,   -7.394167e+01,    0.000000e+00,    0.000000e+00
** ... 175 like lines cut
**
********************************** E L E M E N T S ****************************
*ELEMENT, TYPE=S4R, ELSET=EB1
       1,       8,       7,     140,     139
       2,       7,       6,     141,     140
       3,       6,       5,     142,     141
       4,       5,       4,     143,     142
       5,       4,       3,     144,     143
       6,       3,       1,      16,     144
       7,     139,     140,     147,     146
       8,     141,     142,     147,     140
       9,     142,     143,     148,     147
      10,     145,     146,     152,     151
      11,     146,     147,     148,     152
      12,      13,     149,     189,      14
      13,      16,      17,     143,     144
      14,      36,     188,     154,      37
      15,     188,     156,     155,     154
      16,     189,     149,     150,     156
      17,     143,      17,      18,     148
      18,      18,      19,     152,     148
      19,     152,      19,      20,     151
      20,      35,      43,     157,      57
** ... 154 like lines cut
**
********************************** S I D E S E T S **********************************
*ELSET, ELSET=SS1_E1
      34,      35,      36,     122,     123,     124
*ELSET, ELSET=SS1_E2
      29,     121
*ELSET, ELSET=SS1_E4
      30,     113
*SURFACE, NAME=SS1
SS1_E1, E1
SS1_E2, E2
SS1_E4, E4
*ELSET, ELSET=SS2_E1
      13,      18,      25,      26,      27,      28,      29,      30,      31,      32,
      33,     113,     114,     115,     116,     117,     118,     119,     120,     121
*ELSET, ELSET=SS2_E2
       6,      17,      19,      93,     103,     111
*ELSET, ELSET=SS2_E3
     104,     162
*ELSET, ELSET=SS2_E4
      20,     105
*SURFACE, NAME=SS2
SS2_E1, E1
SS2_E2, E2
SS2_E3, E3
SS2_E4, E4
*ELSET, ELSET=SS7_E1
       1,       2,       3,       4,       5,       6,      66,      67,      78,      79,
      80,      81,      82,      83,      84,     166
*ELSET, ELSET=SS7_E2
      55,      70,      71,     169
*ELSET, ELSET=SS7_E3
     168
*ELSET, ELSET=SS7_E4
      12,      65,     162,     164,     165
*SURFACE, NAME=SS7
SS7_E1, E1
SS7_E2, E2
SS7_E3, E3
SS7_E4, E4
*ELSET, ELSET=SS8_E1
      20,      21,      22,      23,      24,      51,      85,      86,      87,      88,
      89,      90,      91,      92,      93
*ELSET, ELSET=SS8_E2
      54
*ELSET, ELSET=SS8_E4
      14,      52
*SURFACE, NAME=SS8
SS8_E1, E1
SS8_E2, E2
SS8_E4, E4
**
********************************** P R O P E R T I E S ************************
*SHELL SECTION, ELSET=EB1, SECTION INTEGRATION=SIMPSON, MATERIAL=Default-Steel
1.000000e+00
**
*END PART
**
**
**
********************************** E N D   P A R T S **********************************
**
**
********************************** A S S E M B L Y ************************************
**
*ASSEMBLY, NAME=ASSEMBLY1
**
*INSTANCE, NAME=Part-Default_1, PART=Part-Default
*END INSTANCE
**
*END ASSEMBLY
**
**
**
*MATERIAL, NAME = Default-Steel
*ELASTIC, TYPE=ISOTROPIC
2.068000e+05, 2.900000e-01
*DENSITY
7.000000e-06
*CONDUCTIVITY,TYPE=ISO
4.500000e-02
*SPECIFIC HEAT
5.000000e+02
**
**
************************************** H I S T O R Y *************************************
**
*PREPRINT
**
**************************************** S T E P 1 ***************************************
*STEP,INC=100,NAME=Default Set
**
*STATIC
1, 1, 1e-05, 1
**
**
**
**
*END STEP
