*HEADING
cubit(/Users/jekozdon/Desktop/test.inp): 02/20/2019: 19:47:21
version: 15.2
**
********************************** P A R T S **********************************
*PART, NAME=Part-Default
**
********************************** N O D E S **********************************
*NODE, NSET=ALLNODES
       1,    1.000000e+00,    0.000000e+00,    0.000000e+00
       2,    7.071068e-01,    7.071068e-01,    0.000000e+00
       3,    3.017369e-01,    3.000469e-01,    0.000000e+00
       4,    5.372134e-01,    2.884168e-04,    0.000000e+00
       5,    6.123234e-17,    1.000000e+00,    0.000000e+00
       6,    3.334610e-03,    5.383348e-01,    0.000000e+00
       7,   -7.071068e-01,    7.071068e-01,    0.000000e+00
       8,   -3.003842e-01,    3.066312e-01,    0.000000e+00
       9,   -1.000000e+00,    1.224647e-16,    0.000000e+00
      10,   -5.360446e-01,   -8.435451e-04,    0.000000e+00
      11,   -7.071068e-01,   -7.071068e-01,    0.000000e+00
      12,   -2.957995e-01,   -3.036193e-01,    0.000000e+00
      13,   -1.836970e-16,   -1.000000e+00,    0.000000e+00
      14,    5.527262e-03,   -5.353951e-01,    0.000000e+00
      15,    7.071068e-01,   -7.071068e-01,    0.000000e+00
      16,    3.022778e-01,   -2.983624e-01,    0.000000e+00
      17,    3.680641e-03,    8.290927e-04,    0.000000e+00
      18,    2.000000e+00,    2.000000e+00,    0.000000e+00
      19,    1.500000e+00,    2.000000e+00,    0.000000e+00
      20,    1.459547e+00,    1.459424e+00,    0.000000e+00
** ... 53 like lines cut
**
********************************** E L E M E N T S ****************************
*ELEMENT, TYPE=S4R, ELSET=EB1
       1,       1,       2,       3,       4
       2,       2,       5,       6,       3
       3,       5,       7,       8,       6
       4,       7,       9,      10,       8
       5,       9,      11,      12,      10
       6,      11,      13,      14,      12
       7,      13,      15,      16,      14
       8,      15,       1,       4,      16
       9,      14,      16,      17,      12
      10,      16,       4,       3,      17
      11,      12,      17,       8,      10
      12,      17,       3,       6,       8
*ELEMENT, TYPE=S4R, ELSET=EB2
      13,      18,      19,      20,      21
      14,      19,      22,      23,      20
      15,      22,      24,      25,      23
      16,      24,      26,      27,      25
      17,      26,      28,      29,      27
      18,      28,      30,      31,      29
      19,      30,      32,      33,      31
      20,      32,      34,      35,      33
      21,      36,      37,      38,      39
      22,      37,      40,      41,      38
      23,      40,      42,      43,      41
      24,      42,      44,      45,      43
      25,      44,      46,      47,      45
      26,      46,      48,      49,      47
      27,      48,      50,      51,      49
      28,      50,      52,      53,      51
      29,      35,      54,      55,      33
      30,      54,      56,      57,      55
      31,      56,      58,      59,      57
      32,      58,      60,      61,      59
** ... 24 like lines cut
**
********************************** S I D E S E T S **********************************
*ELSET, ELSET=SS1_E1
      29,      30,      31,      32,      33,      34
*ELSET, ELSET=SS1_E2
      20
*ELSET, ELSET=SS1_E4
      21
*SURFACE, NAME=SS1
SS1_E1, E1
SS1_E2, E2
SS1_E4, E4
*ELSET, ELSET=SS2_E1
      35,      36,      37,      38,      39,      40
*ELSET, ELSET=SS2_E2
      28
*ELSET, ELSET=SS2_E4
      13
*SURFACE, NAME=SS2
SS2_E1, E1
SS2_E2, E2
SS2_E4, E4
*ELSET, ELSET=SS3_E1
      21,      22,      23,      24,      25,      26,      27,      28
*SURFACE, NAME=SS3
SS3_E1, E1
*ELSET, ELSET=SS4_E1
      13,      14,      15,      16,      17,      18,      19,      20
*SURFACE, NAME=SS4
SS4_E1, E1
*ELSET, ELSET=SS5_E1
       1,       2,       3,       4,       5,       6,       7,       8,      41,      43,
      45,      47,      49,      51,      53
*ELSET, ELSET=SS5_E3
      55
*SURFACE, NAME=SS5
SS5_E1, E1
SS5_E3, E3
**
********************************** P R O P E R T I E S ************************
*SHELL SECTION, ELSET=EB1, SECTION INTEGRATION=SIMPSON, MATERIAL=Default-Steel
1.000000e+00
*SHELL SECTION, ELSET=EB2, SECTION INTEGRATION=SIMPSON, MATERIAL=Default-Steel
1.000000e+00
**
*END PART
**
**
**
********************************** E N D   P A R T S **********************************
**
**
********************************** A S S E M B L Y ************************************
**
*ASSEMBLY, NAME=ASSEMBLY1
**
*INSTANCE, NAME=Part-Default_1, PART=Part-Default
*END INSTANCE
**
*END ASSEMBLY
**
**
**
*MATERIAL, NAME = Default-Steel
*ELASTIC, TYPE=ISOTROPIC
2.068000e+05, 2.900000e-01
*DENSITY
7.000000e-06
*CONDUCTIVITY,TYPE=ISO
4.500000e-02
*SPECIFIC HEAT
5.000000e+02
**
**
************************************** H I S T O R Y *************************************
**
*PREPRINT
**
**************************************** S T E P 1 ***************************************
*STEP,INC=100,NAME=Default Set
**
*STATIC
1, 1, 1e-05, 1
**
**
**
**
*END STEP
