
*HEADING
cubit(/Users/jekozdon/codes/D2_sbp/seas/meshes/BP1_v1.inp): 12/12/2019: 08:14:37
version: 15.2
**
********************************** P A R T S **********************************
*PART, NAME=Part-Default
**
********************************** N O D E S **********************************
*NODE, NSET=ALLNODES
       1,    0.000000e+00,   -2.153846e+01,    0.000000e+00
       2,    0.000000e+00,   -1.846154e+01,    0.000000e+00
       3,   -4.533155e+00,   -1.735460e+01,    0.000000e+00
       4,   -4.565601e+00,   -2.119437e+01,    0.000000e+00
       5,    0.000000e+00,   -2.461538e+01,    0.000000e+00
       6,   -4.339897e+00,   -2.485911e+01,    0.000000e+00
       7,    0.000000e+00,   -2.769231e+01,    0.000000e+00
       8,   -3.817388e+00,   -2.833963e+01,    0.000000e+00
       9,    0.000000e+00,   -3.076923e+01,    0.000000e+00
      10,   -3.139775e+00,   -3.148316e+01,    0.000000e+00
      11,    0.000000e+00,   -3.384615e+01,    0.000000e+00
      12,   -2.191071e+00,   -3.372486e+01,    0.000000e+00
      13,    0.000000e+00,   -3.692308e+01,    0.000000e+00
      14,   -3.433437e+00,   -3.584526e+01,    0.000000e+00
      15,    0.000000e+00,   -4.000000e+01,    0.000000e+00
      16,   -5.066921e+00,   -3.896007e+01,    0.000000e+00
      17,    0.000000e+00,   -4.300000e+01,    0.000000e+00
      18,   -7.385120e+00,   -4.346437e+01,    0.000000e+00
      19,    0.000000e+00,   -4.988890e+01,    0.000000e+00
      20,   -1.158540e+01,   -5.131632e+01,    0.000000e+00
** ... 195 like lines cut
**
********************************** E L E M E N T S ****************************
*ELEMENT, TYPE=S4R, ELSET=EB1
       1,       1,       2,       3,       4
       2,       5,       1,       4,       6
       3,       7,       5,       6,       8
       4,       9,       7,       8,      10
       5,      11,       9,      10,      12
       6,      13,      11,      12,      14
       7,      15,      13,      14,      16
       8,      17,      15,      16,      18
       9,      19,      17,      18,      20
      10,      21,      19,      20,      22
      11,      23,      21,      22,      24
      12,      25,      23,      24,      26
      13,      27,      25,      26,      28
      14,      29,      27,      28,      30
      15,      31,      29,      30,      32
      16,      33,      31,      32,      34
      17,       4,       3,      35,      36
      18,      14,      12,      10,      37
      19,      16,      14,      37,      38
      20,      22,      20,      39,      40
** ... 174 like lines cut
**
********************************** S I D E S E T S **********************************
*ELSET, ELSET=SS1_E1
      45,      46,      47,     142,     143,     144
*ELSET, ELSET=SS1_E2
      36,     141
*ELSET, ELSET=SS1_E4
      44,     133
*SURFACE, NAME=SS1
SS1_E1, E1
SS1_E2, E2
SS1_E4, E4
*ELSET, ELSET=SS2_E1
      36,      37,      38,      39,      40,      41,      42,      43,      44,     133,
     134,     135,     136,     137,     138,     139,     140,     141
*ELSET, ELSET=SS2_E2
      28,     113,     123,     131
*ELSET, ELSET=SS2_E3
      27,      85,     124,     182
*ELSET, ELSET=SS2_E4
      16,      26,      34,     125
*SURFACE, NAME=SS2
SS2_E1, E1
SS2_E2, E2
SS2_E3, E3
SS2_E4, E4
*ELSET, ELSET=SS7_E1
       1,       2,       3,       4,       5,       6,       7,      89,      98,      99,
     100,     101,     102,     103,     104,     186
*ELSET, ELSET=SS7_E2
      85,      87,      88,     189
*ELSET, ELSET=SS7_E3
      91,     188
*ELSET, ELSET=SS7_E4
      92,     182,     184,     185
*SURFACE, NAME=SS7
SS7_E1, E1
SS7_E2, E2
SS7_E3, E3
SS7_E4, E4
*ELSET, ELSET=SS8_E1
       8,       9,      10,      11,      12,      13,      14,      15,      16,     105,
     106,     107,     108,     109,     110,     111,     112,     113
*SURFACE, NAME=SS8
SS8_E1, E1
**
********************************** P R O P E R T I E S ************************
*SHELL SECTION, ELSET=EB1, SECTION INTEGRATION=SIMPSON, MATERIAL=Default-Steel
1.000000e+00
**
*END PART
**
**
**
********************************** E N D   P A R T S **********************************
**
**
********************************** A S S E M B L Y ************************************
**
*ASSEMBLY, NAME=ASSEMBLY1
**
*INSTANCE, NAME=Part-Default_1, PART=Part-Default
*END INSTANCE
**
*END ASSEMBLY
**
**
**
*MATERIAL, NAME = Default-Steel
*ELASTIC, TYPE=ISOTROPIC
2.068000e+05, 2.900000e-01
*DENSITY
7.000000e-06
*CONDUCTIVITY,TYPE=ISO
4.500000e-02
*SPECIFIC HEAT
5.000000e+02
**
**
************************************** H I S T O R Y *************************************
**
*PREPRINT
**
**************************************** S T E P 1 ***************************************
*STEP,INC=100,NAME=Default Set
**
*STATIC
1, 1, 1e-05, 1
**
**
**
**
*END STEP